/*--------------------------------*- C++ -*----------------------------------*\
| =========                 |                                                 |
| \\      /  F ield         | OpenFOAM: The Open Source CFD Toolbox           |
|  \\    /   O peration     | Version:  v2006                                 |
|   \\  /    A nd           | Website:  www.openfoam.com                      |
|    \\/     M anipulation  |                                                 |
\*---------------------------------------------------------------------------*/
FoamFile
{
    version     2.0;
    format      ascii;
    class       dictionary;
    object      surfaceFeatureExtractDict;
}
// * * * * * * * * * * * * * * * * * * * * * * * * * * * * * * * * * * * * * //

rotatingAMI.stl
{
    extractionMethod    extractFromSurface;
    includedAngle       150;
}
impeller.stl
{
    extractionMethod    extractFromSurface;
    includedAngle       150;
}
housing.stl
{
    extractionMethod    extractFromSurface;
    includedAngle       150;
}
cover.stl
{
    extractionMethod    extractFromSurface;
    includedAngle       150;
}

// ************************************************************************* //
