/*--------------------------------*- C++ -*----------------------------------*\
| =========                 |                                                 |
| \\      /  F ield         | OpenFOAM: The Open Source CFD Toolbox           |
|  \\    /   O peration     | Version:  v2006                                 |
|   \\  /    A nd           | Website:  www.openfoam.com                      |
|    \\/     M anipulation  |                                                 |
\*---------------------------------------------------------------------------*/
FoamFile
{
    version     2.0;
    format      ascii;
    class       extendedFeatureEdgeMesh;
    location    "constant/extendedFeatureEdgeMesh";
    object      housing.extendedFeatureEdgeMesh;
}
// * * * * * * * * * * * * * * * * * * * * * * * * * * * * * * * * * * * * * //

// points

1536
(
(65.1 168.0589 64.75265)
(65.1 174.8584 64.9901)
(65.1 175.2075 84.98705)
(45.1 175.2075 84.98705)
(45.1 174.8584 64.9901)
(45.1 168.0589 64.75265)
(48.1 168.0589 64.75265)
(48.1 174.8584 64.9901)
(62.1 168.0589 64.75265)
(62.1 174.8584 64.9901)
(18.41046 172.724 102.8295)
(50.6 205.3612 85)
(59.6 243.7757 69.97667)
(55.73958 245.2743 69.97667)
(54.4605 245.2743 69.97667)
(50.6 243.7757 69.97667)
(59.6 205.3612 85)
(59.6 245.2743 69.97667)
(59.6 245.2743 85)
(50.6 245.2743 85)
(50.6 245.2743 69.97667)
(45.1 172.724 65)
(45.1 173.724 65)
(62.1 172.724 87.40617)
(65.1 172.724 65)
(62.1 172.724 65)
(65.1 173.724 65)
(62.1 173.724 65)
(62.1 173.724 81.99999)
(48.1 173.724 81.99999)
(48.1 173.724 65)
(48.1 172.724 65)
(48.1 172.724 87.40617)
(40.1 175.224 -66.5)
(40.1 170.224 -66.5)
(40.1 175.224 -68.5)
(40.1 170.224 -68.5)
(45.1 172.724 85)
(65.1 172.724 85)
(52.9 220.9137 82.7)
(52.9 241.9254 72.27667)
(57.3 220.9136 82.7)
(57.3 241.9254 72.27667)
(57.3 245.2743 72.27667)
(57.3 245.2743 82.7)
(52.9 245.2743 82.7)
(52.9 245.2743 72.27667)
(45.1 175.224 -68.5)
(45.1 170.224 -68.5)
(45.1 170.224 -66.5)
(45.1 175.224 -66.5)
(45.1 173.724 85)
(65.1 173.724 85)
(62.19544 173.724 82.09543)
(48.00454 173.724 82.09546)
(48.1 172.4492 87.38024)
(62.1 172.4492 87.38024)
(62.1 173.7332 82.00002)
(48.1 173.7332 82.00002)
(65.1 170.3222 64.91092)
(65.1 166.4035 83.67442)
(65.1 167.1682 84.73441)
(65.1 167.0177 84.68577)
(65.1 166.8768 84.61402)
(65.1 166.749 84.52096)
(65.1 172.5896 64.9901)
(65.1 172.5779 84.99227)
(65.1 169.9493 84.91614)
(65.1 167.3244 84.75874)
(65.1 166.6375 84.40892)
(65.1 166.545 84.28069)
(65.1 166.4022 83.83252)
(65.1 166.4738 84.1395)
(65.1 166.4258 83.98885)
(45.1 172.5779 84.99227)
(45.1 169.9493 84.91614)
(45.1 167.3244 84.75874)
(45.1 172.5896 64.9901)
(45.1 170.3222 64.91092)
(45.1 166.4035 83.67442)
(45.1 166.545 84.28069)
(45.1 166.6375 84.40892)
(45.1 166.749 84.52096)
(45.1 166.8768 84.61402)
(45.1 167.0177 84.68577)
(45.1 166.4738 84.1395)
(45.1 166.4022 83.83252)
(45.1 166.4258 83.98885)
(45.1 167.1682 84.73441)
(48.1 170.3222 64.91092)
(48.1 172.5896 64.9901)
(48.1 175.1725 82.98135)
(48.1 166.4906 82.67817)
(62.1 175.1725 82.98135)
(62.1 166.4906 82.67817)
(62.1 170.3222 64.91092)
(62.1 172.5896 64.9901)
(14.3418 322.724 118.7174)
(15.72147 322.724 114.2653)
(15.83879 322.724 106.8942)
(13.71016 322.724 111.2176)
(17.58573 322.724 109.9943)
(18.41046 322.724 102.8295)
(19.90657 322.724 105.9604)
(21.10326 322.724 99.39934)
(22.64936 322.724 102.2149)
(24.01562 322.724 100.631)
(24.41061 322.724 95.96519)
(27.28685 322.724 97.3972)
(28.0428 322.724 92.91447)
(30.87135 322.724 94.5548)
(31.95871 322.724 90.27489)
(34.72614 322.724 92.13103)
(36.12 322.724 88.06777)
(38.8143 322.724 90.14484)
(40.4918 322.724 86.30949)
(42.9303 322.724 88.66303)
(45.1 322.724 85)
(97.09935 322.724 128.1751)
(96.93724 322.724 132.6196)
(100.0501 322.724 131.0134)
(100.0284 322.724 126.265)
(96.77792 322.724 123.633)
(99.5127 322.724 121.5953)
(95.96464 322.724 119.1533)
(98.50308 322.724 116.9785)
(94.66442 322.724 114.7751)
(97.01037 322.724 112.4882)
(92.88622 322.724 110.5437)
(95.04149 322.724 108.1542)
(90.64476 322.724 106.5091)
(92.61435 322.724 104.032)
(87.96185 322.724 102.7242)
(89.7484 322.724 100.1689)
(85.01561 322.724 99.39326)
(86.48265 322.724 96.6267)
(81.57038 322.724 96.25698)
(82.85462 322.724 93.45084)
(77.7981 322.724 93.52172)
(78.90646 322.724 90.68187)
(73.74368 322.724 91.22296)
(74.68141 322.724 88.35269)
(69.44946 322.724 89.38726)
(70.22138 322.724 86.48868)
(64.95593 322.724 88.03501)
(65.88024 322.724 85.18507)
(62.1 322.724 87.38024)
(65.1 322.724 85)
(48.1 322.724 87.38024)
(47.54105 322.724 87.50767)
(12.05438 322.724 115.747)
(10.89416 322.724 120.4298)
(13.46567 322.724 123.2973)
(10.24505 322.724 125.2083)
(13.10481 322.724 127.9552)
(10.1136 322.724 130.0492)
(13.26159 322.724 132.6065)
(10.49876 322.724 134.8528)
(13.92937 322.724 137.2245)
(11.38398 322.724 139.5611)
(15.07488 322.724 141.6508)
(12.7401 322.724 144.0767)
(16.68294 322.724 145.8961)
(14.5623 322.724 148.4231)
(18.756 322.724 149.9649)
(16.83977 322.724 152.5667)
(21.26466 322.724 153.7912)
(19.55006 322.724 156.4609)
(24.19742 322.724 157.3485)
(22.67526 322.724 160.0705)
(27.52694 322.724 160.5874)
(26.18992 322.724 163.3523)
(31.19407 322.724 163.4424)
(30.03656 322.724 166.2444)
(35.16226 322.724 165.8815)
(34.17629 322.724 168.7146)
(39.37764 322.724 167.867)
(38.55851 322.724 170.7286)
(43.78806 322.724 169.371)
(43.13457 322.724 172.2604)
(48.34133 322.724 170.3746)
(47.84927 322.724 173.2909)
(53.01011 322.724 170.8666)
(52.67801 322.724 173.8102)
(57.18989 322.724 170.8666)
(57.49691 322.724 173.8116)
(61.76932 322.724 170.389)
(62.24006 322.724 173.3088)
(66.20374 322.724 169.4287)
(66.83706 322.724 172.3227)
(70.5294 322.724 167.9842)
(71.32641 322.724 170.852)
(74.68005 322.724 166.0727)
(75.64183 322.724 168.9132)
(78.62002 322.724 163.7069)
(79.75192 322.724 166.5176)
(82.29828 322.724 160.91)
(83.60578 322.724 163.6875)
(85.6675 322.724 157.7082)
(87.15915 322.724 160.4459)
(88.66798 322.724 154.1503)
(90.35196 322.724 156.8401)
(91.26035 322.724 150.2782)
(93.14522 322.724 152.9098)
(93.40809 322.724 146.1404)
(95.50206 322.724 148.7017)
(95.07988 322.724 141.7922)
(97.39173 322.724 144.2654)
(96.26278 322.724 137.2635)
(98.79608 322.724 139.6426)
(99.69918 322.724 134.8682)
(62.1 172.724 87.38024)
(57.71368 172.724 86.38024)
(15.72147 172.724 114.2653)
(14.3418 172.724 118.7174)
(12.05438 172.724 115.747)
(13.71016 172.724 111.2176)
(17.58573 172.724 109.9943)
(15.83879 172.724 106.8942)
(19.90657 172.724 105.9604)
(22.64936 172.724 102.2149)
(21.10326 172.724 99.39934)
(52.48632 172.724 86.38024)
(48.1 172.724 87.38024)
(47.54105 172.724 87.50767)
(40.4918 172.724 86.30949)
(42.9303 172.724 88.66303)
(36.12 172.724 88.06777)
(38.8143 172.724 90.14484)
(31.95871 172.724 90.27489)
(34.72614 172.724 92.13103)
(28.0428 172.724 92.91447)
(30.87135 172.724 94.5548)
(24.41061 172.724 95.96519)
(27.28685 172.724 97.3972)
(24.01562 172.724 100.631)
(96.26278 172.724 137.2635)
(96.93724 172.724 132.6196)
(99.69918 172.724 134.8682)
(98.79608 172.724 139.6426)
(95.07988 172.724 141.7922)
(97.39173 172.724 144.2654)
(93.40809 172.724 146.1404)
(95.50206 172.724 148.7017)
(91.26035 172.724 150.2782)
(93.14522 172.724 152.9098)
(88.66798 172.724 154.1503)
(90.35196 172.724 156.8401)
(85.6675 172.724 157.7082)
(87.15915 172.724 160.4459)
(82.29828 172.724 160.91)
(83.60578 172.724 163.6875)
(78.62002 172.724 163.7069)
(79.75192 172.724 166.5176)
(74.68005 172.724 166.0727)
(75.64183 172.724 168.9132)
(70.5294 172.724 167.9842)
(71.32641 172.724 170.852)
(66.20374 172.724 169.4287)
(66.83706 172.724 172.3227)
(61.76932 172.724 170.389)
(62.24006 172.724 173.3088)
(57.18989 172.724 170.8666)
(57.49691 172.724 173.8116)
(53.01011 172.724 170.8666)
(52.67801 172.724 173.8102)
(48.34133 172.724 170.3746)
(47.84927 172.724 173.2909)
(43.78806 172.724 169.371)
(43.13457 172.724 172.2604)
(39.37764 172.724 167.867)
(38.55851 172.724 170.7286)
(35.16226 172.724 165.8815)
(34.17629 172.724 168.7146)
(31.19407 172.724 163.4424)
(30.03656 172.724 166.2444)
(27.52694 172.724 160.5874)
(26.18992 172.724 163.3523)
(24.19742 172.724 157.3485)
(22.67526 172.724 160.0705)
(21.26466 172.724 153.7912)
(19.55006 172.724 156.4609)
(18.756 172.724 149.9649)
(16.83977 172.724 152.5667)
(16.68294 172.724 145.8961)
(14.5623 172.724 148.4231)
(15.07488 172.724 141.6508)
(12.7401 172.724 144.0767)
(13.92937 172.724 137.2245)
(11.38398 172.724 139.5611)
(13.26159 172.724 132.6065)
(10.49876 172.724 134.8528)
(13.10481 172.724 127.9552)
(10.1136 172.724 130.0492)
(13.46567 172.724 123.2973)
(10.24505 172.724 125.2083)
(10.89416 172.724 120.4298)
(64.95593 172.724 88.03501)
(65.88024 172.724 85.18507)
(69.44946 172.724 89.38726)
(70.22138 172.724 86.48868)
(73.74368 172.724 91.22296)
(74.68141 172.724 88.35269)
(77.7981 172.724 93.52172)
(78.90646 172.724 90.68187)
(81.57038 172.724 96.25698)
(82.85462 172.724 93.45084)
(85.01561 172.724 99.39326)
(86.48265 172.724 96.6267)
(87.96185 172.724 102.7242)
(89.7484 172.724 100.1689)
(90.64476 172.724 106.5091)
(92.61435 172.724 104.032)
(92.88622 172.724 110.5437)
(95.04149 172.724 108.1542)
(94.66442 172.724 114.7751)
(97.01037 172.724 112.4882)
(95.96464 172.724 119.1533)
(98.50308 172.724 116.9785)
(96.77792 172.724 123.633)
(99.5127 172.724 121.5953)
(97.09935 172.724 128.1751)
(100.0284 172.724 126.265)
(100.0501 172.724 131.0134)
(57.3 226.9223 80.59037)
(57.3 225.4422 81.16707)
(55.79506 212.1269 85)
(55.67155 212.169 85)
(55.40825 212.2311 85)
(55.14213 212.256 85)
(54.65609 212.2038 85)
(54.40074 212.1254 85)
(54.00128 211.9306 85)
(53.74939 211.7612 85)
(51.80162 208.9993 85)
(51.52315 208.3347 85)
(50.8062 206.1496 85)
(50.72881 206.931 84.87119)
(52.9 221.7279 82.44907)
(52.9 222.4379 82.22161)
(52.9 223.9474 81.71074)
(52.9 225.4422 81.16707)
(52.9 226.9223 80.59037)
(59.18709 244.0571 69.97667)
(59.13303 243.4864 70.44364)
(58.70433 244.3452 69.97667)
(58.66604 243.1529 70.91063)
(58.51279 243.0339 71.06388)
(58.21043 244.597 69.97667)
(56.25597 245.2082 69.97667)
(56.76522 245.1051 69.97667)
(57.26773 244.9655 69.97667)
(57.76379 244.7894 69.97667)
(55.02648 245.2743 69.99971)
(55.59204 245.2743 69.98621)
(55.98223 245.248 69.97667)
(54.21786 245.248 69.97667)
(52.9994 244.9863 69.97667)
(53.49486 245.1193 69.97667)
(53.99565 245.2166 69.97667)
(52.46521 242.3571 71.84188)
(52.00018 242.7763 71.37685)
(51.6872 243.0339 71.06388)
(51.98054 244.5928 69.97667)
(52.46354 244.8001 69.97667)
(51.50897 244.3525 69.97667)
(51.53398 243.1529 70.91065)
(51.04874 244.08 69.97667)
(51.06698 243.4864 70.44365)
(52.9 240.8793 73.01818)
(52.9 241.6352 72.48501)
(52.9 237.5245 75.22131)
(52.9 238.6073 74.53874)
(52.9 238.9058 74.34589)
(52.9 240.2758 73.43398)
(52.9 236.131 76.06079)
(52.9 234.7246 76.86482)
(52.9 233.9692 77.27913)
(52.9 231.2724 78.66156)
(52.9 232.6936 77.95158)
(52.9 233.3042 77.63389)
(52.9 229.8373 79.33772)
(52.9 229.1915 79.62897)
(52.9 228.3876 79.98051)
(52.35389 218.4962 83.24611)
(52.48021 219.0933 83.11979)
(52.63383 219.787 82.96617)
(51.40724 212.9762 84.19277)
(51.62132 214.4282 83.97868)
(51.21173 211.5003 84.38827)
(51.02774 206.9087 85)
(50.87326 208.4776 84.72674)
(51.034 210.0008 84.566)
(51.26607 207.6375 85)
(52.66112 210.572 85)
(52.40856 210.1759 85)
(52.13677 209.6909 85)
(51.88187 209.175 85)
(53.13899 211.1915 85)
(52.89459 210.895 85)
(53.39569 211.4597 85)
(53.66641 211.6973 85)
(54.26207 212.0678 85)
(54.91483 212.2473 85)
(56.55031 211.6839 85)
(56.3502 211.8332 85)
(56.07496 212.0005 85)
(57.53941 210.5712 85)
(57.43625 210.7189 85)
(57.82985 210.1112 85)
(58.12058 209.5802 85)
(58.43689 208.9125 85)
(58.73718 208.1787 85)
(59.166 210.0008 84.566)
(59.32673 208.4776 84.72674)
(59.47119 206.9311 84.87119)
(59.50036 205.7528 85)
(59.22881 206.7228 85)
(59.02252 207.3764 85)
(58.57869 214.4281 83.9787)
(58.79277 212.9761 84.19277)
(58.34524 215.8558 83.74524)
(57.3 221.7279 82.44907)
(57.56615 219.7871 82.96615)
(57.71979 219.0933 83.11979)
(57.8461 218.4963 83.2461)
(57.3 223.9474 81.71074)
(57.3 222.4379 82.22161)
(57.3 229.1915 79.62897)
(57.3 228.3876 79.98051)
(57.3 231.2724 78.66156)
(57.3 229.8373 79.33772)
(57.3 234.7245 76.86482)
(57.3 233.9692 77.27913)
(57.3 233.3042 77.63389)
(57.3 232.6936 77.95158)
(57.3 236.131 76.06079)
(57.3 237.5245 75.22132)
(57.3 238.6073 74.53874)
(57.3 240.8793 73.01818)
(57.3 240.2758 73.43398)
(57.3 238.9058 74.34589)
(58.19982 242.7763 71.37685)
(57.73475 242.3571 71.84192)
(57.3 241.6352 72.48501)
(51.85479 215.8559 83.74521)
(52.10845 217.259 83.49155)
(56.85374 211.4113 85)
(57.14847 211.0901 85)
(58.09159 217.2588 83.49159)
(58.98827 211.5003 84.38827)
(65.1 179.4074 -64.65549)
(65.1 172.724 -65)
(64.1 179.4074 -64.65549)
(64.1 186.0199 -63.62562)
(65.1 186.0199 -63.62562)
(64.1 192.4915 -61.9213)
(65.1 192.4915 -61.9213)
(64.1 198.7535 -59.5606)
(65.1 198.7535 -59.5606)
(64.1 204.7397 -56.56854)
(65.1 204.7397 -56.56854)
(64.1 210.3864 -52.97684)
(65.1 210.3864 -52.97684)
(64.1 215.6339 -48.82358)
(65.1 215.6339 -48.82358)
(64.1 220.4266 -44.15277)
(65.1 220.4266 -44.15277)
(64.1 224.7136 -39.01393)
(65.1 224.7136 -39.01393)
(64.1 228.4495 -33.46153)
(65.1 228.4495 -33.46153)
(64.1 231.5947 -27.55444)
(65.1 231.5947 -27.55444)
(64.1 234.1158 -21.35525)
(65.1 234.1158 -21.35525)
(64.1 235.9862 -14.9297)
(65.1 235.9862 -14.9297)
(64.1 237.186 -8.345893)
(65.1 237.186 -8.345893)
(64.1 237.7025 -1.673614)
(65.1 237.7025 -1.673614)
(64.1 237.5302 5.016405)
(65.1 237.5302 5.016405)
(64.1 236.6709 11.65325)
(65.1 236.6709 11.65325)
(64.1 235.1338 18.16657)
(65.1 235.1338 18.16657)
(64.1 232.9351 24.48731)
(65.1 232.9351 24.48731)
(64.1 230.0982 30.54849)
(65.1 230.0982 30.54849)
(64.1 226.653 36.28584)
(65.1 226.653 36.28584)
(64.1 222.6363 41.63856)
(65.1 222.6363 41.63856)
(64.1 218.0904 46.54989)
(65.1 218.0904 46.54989)
(64.1 213.0637 50.96779)
(65.1 213.0637 50.96779)
(64.1 207.6093 54.84541)
(65.1 207.6093 54.84541)
(64.1 201.7851 58.14166)
(65.1 201.7851 58.14166)
(64.1 195.6529 60.82159)
(65.1 195.6529 60.82159)
(64.1 189.2777 62.8568)
(65.1 189.2777 62.8568)
(64.1 182.7269 64.22571)
(65.1 182.7269 64.22571)
(64.1 176.0702 64.91382)
(65.1 176.0702 64.91382)
(64.1 169.3779 64.91382)
(65.1 169.3779 64.91382)
(64.1 162.7212 64.22571)
(65.1 162.7212 64.22571)
(64.1 156.1704 62.8568)
(65.1 156.1704 62.8568)
(64.1 149.7952 60.82159)
(65.1 149.7952 60.82159)
(64.1 143.6629 58.14166)
(65.1 143.6629 58.14166)
(64.1 137.8388 54.84541)
(65.1 137.8388 54.84541)
(64.1 132.3844 50.96779)
(65.1 132.3844 50.96779)
(64.1 127.3577 46.54989)
(65.1 127.3577 46.54989)
(64.1 122.8118 41.63856)
(65.1 122.8118 41.63856)
(64.1 118.795 36.28584)
(65.1 118.795 36.28584)
(64.1 115.3499 30.54849)
(65.1 115.3499 30.54849)
(64.1 112.513 24.48731)
(65.1 112.513 24.48731)
(64.1 110.3143 18.16657)
(65.1 110.3143 18.16657)
(64.1 108.7772 11.65325)
(65.1 108.7772 11.65325)
(64.1 107.9179 5.016405)
(65.1 107.9179 5.016405)
(64.1 107.7456 -1.673614)
(65.1 107.7456 -1.673614)
(64.1 108.2621 -8.345893)
(65.1 108.2621 -8.345893)
(64.1 109.4619 -14.9297)
(65.1 109.4619 -14.9297)
(64.1 111.3322 -21.35525)
(65.1 111.3322 -21.35525)
(64.1 113.8534 -27.55444)
(65.1 113.8534 -27.55444)
(64.1 116.9986 -33.46153)
(65.1 116.9986 -33.46153)
(64.1 120.7345 -39.01393)
(65.1 120.7345 -39.01393)
(64.1 125.0215 -44.15277)
(65.1 125.0215 -44.15277)
(64.1 129.8142 -48.82358)
(65.1 129.8142 -48.82358)
(64.1 135.0617 -52.97684)
(65.1 135.0617 -52.97684)
(64.1 140.7084 -56.56854)
(65.1 140.7084 -56.56854)
(64.1 146.6945 -59.5606)
(65.1 146.6945 -59.5606)
(64.1 152.9566 -61.9213)
(65.1 152.9566 -61.9213)
(64.1 159.4282 -63.62562)
(65.1 159.4282 -63.62562)
(64.1 166.0407 -64.65549)
(65.1 166.0407 -64.65549)
(64.1 172.724 -65)
(64.1 187.724 -1.734723e-15)
(64.1 187.4962 2.604723)
(64.1 187.4962 -2.604723)
(64.1 172.724 15)
(64.1 170.1193 14.77212)
(64.1 175.3288 14.77212)
(64.1 186.8194 5.130302)
(64.1 185.7144 7.5)
(64.1 184.2147 9.641814)
(64.1 167.5937 14.09539)
(64.1 158.6286 5.130302)
(64.1 157.9519 2.604723)
(64.1 159.7337 7.5)
(64.1 180.224 12.99038)
(64.1 177.8543 14.09539)
(64.1 182.3659 11.49067)
(64.1 165.224 12.99038)
(64.1 163.0822 11.49067)
(64.1 161.2334 9.641814)
(64.1 157.724 3.469447e-15)
(64.1 172.724 -15)
(64.1 175.3288 -14.77212)
(64.1 177.8543 -14.09539)
(64.1 180.224 -12.99038)
(64.1 185.7144 -7.5)
(64.1 186.8194 -5.130302)
(64.1 157.9519 -2.604723)
(64.1 158.6286 -5.130302)
(64.1 159.7337 -7.5)
(64.1 161.2334 -9.641814)
(64.1 170.1193 -14.77212)
(64.1 167.5937 -14.09539)
(64.1 182.3659 -11.49067)
(64.1 184.2147 -9.641814)
(64.1 163.0822 -11.49067)
(64.1 165.224 -12.99038)
(65.1 172.724 -15)
(65.1 170.1193 -14.77212)
(65.1 167.5937 -14.09539)
(65.1 165.224 -12.99038)
(65.1 161.2334 -9.641814)
(65.1 159.7337 -7.5)
(65.1 163.0822 -11.49067)
(65.1 187.4962 -2.604723)
(65.1 186.8194 -5.130302)
(65.1 187.724 -1.734723e-15)
(65.1 185.7144 -7.5)
(65.1 175.3288 -14.77212)
(65.1 177.8543 -14.09539)
(65.1 157.724 3.469447e-15)
(65.1 157.9519 2.604723)
(65.1 157.9519 -2.604723)
(65.1 159.7337 7.5)
(65.1 161.2334 9.641814)
(65.1 158.6286 5.130302)
(65.1 165.224 12.99038)
(65.1 167.5937 14.09539)
(65.1 163.0822 11.49067)
(65.1 184.2147 -9.641814)
(65.1 158.6286 -5.130302)
(65.1 182.3659 11.49067)
(65.1 184.2147 9.641814)
(65.1 180.224 12.99038)
(65.1 182.3659 -11.49067)
(65.1 180.224 -12.99038)
(65.1 170.1193 14.77212)
(65.1 186.8194 5.130302)
(65.1 187.4962 2.604723)
(65.1 185.7144 7.5)
(65.1 172.724 15)
(65.1 175.3288 14.77212)
(65.1 177.8543 14.09539)
(45.1 136.6125 54.02519)
(45.1 130.1007 49.12805)
(45.1 144.1155 58.09768)
(45.1 160.9877 63.33797)
(45.1 151.9305 61.06203)
(45.1 124.3413 43.32043)
(45.1 127.3715 -46.55822)
(45.1 133.9332 -52.09093)
(45.1 116.9045 -33.35414)
(45.1 121.5557 -40.11483)
(45.1 237.2132 -8.62953)
(45.1 237.6937 -2.804358)
(45.1 213.6035 50.56785)
(45.1 206.9459 55.15894)
(45.1 119.2146 36.52438)
(45.1 111.5711 21.09852)
(45.1 109.0984 12.29081)
(45.1 107.8633 3.452807)
(45.1 107.8836 -5.122694)
(45.1 157.5704 -63.14797)
(45.1 166.2093 -64.65869)
(45.1 174.8356 -64.96255)
(45.1 183.2748 -64.09577)
(45.1 219.6952 44.90425)
(45.1 108.3309 -9.269515)
(45.1 110.078 -17.53657)
(45.1 141.2261 -56.7541)
(45.1 149.1954 -60.49152)
(45.1 199.9414 -58.91855)
(45.1 207.7143 -54.69225)
(45.1 199.5442 58.86747)
(45.1 176.3203 84.7203)
(45.1 115.1664 29.5254)
(45.1 112.9436 -25.6156)
(45.1 191.7535 -62.06296)
(45.1 228.6617 -33.15448)
(45.1 232.6144 -25.37353)
(45.1 235.4955 -17.12472)
(45.1 237.3916 5.633071)
(45.1 225.0906 38.2349)
(45.1 191.2013 61.78047)
(45.1 184.8746 83.48344)
(45.1 186.2706 83.23081)
(45.1 229.7629 30.56781)
(45.1 188.6511 82.76364)
(45.1 189.8255 82.51555)
(45.1 181.6706 63.92467)
(45.1 190.9895 82.25771)
(45.1 193.2861 81.7126)
(45.1 178.8728 84.40395)
(45.1 181.3818 84.05054)
(45.1 183.8476 83.65963)
(45.1 221.0822 -43.44748)
(45.1 223.7618 -40.27557)
(45.1 214.825 -49.4909)
(45.1 233.4201 22.37053)
(45.1 235.9681 13.97936)
(63.59189 173.655 83.49168)
(62.72306 173.684 82.62292)
(47.4437 173.6817 82.6567)
(41.00344 172.724 86.13773)
(43.98523 172.4552 88.35915)
(37.09438 172.724 87.62906)
(40.17546 172.4688 89.60074)
(33.38769 172.724 89.45306)
(36.55568 172.4858 91.1739)
(29.89826 172.724 91.58877)
(33.13921 172.5055 93.05821)
(26.64094 172.724 94.01523)
(29.93977 172.5277 95.23344)
(23.63062 172.724 96.71146)
(26.97175 172.5524 97.6792)
(20.88217 172.724 99.65654)
(24.24984 172.5793 100.3749)
(21.78876 172.6081 103.2998)
(16.23034 172.724 106.2097)
(19.60335 172.6386 106.4329)
(14.35663 172.724 109.7761)
(17.70835 172.6709 109.753)
(12.8042 172.724 113.5075)
(16.11825 172.7046 113.2399)
(11.58792 172.724 117.3825)
(14.84756 172.7394 116.8732)
(10.72282 172.724 121.3818)
(13.9108 172.7752 120.6327)
(10.22356 172.724 125.4826)
(13.32247 172.8116 124.4978)
(10.10483 172.724 129.6624)
(13.09709 172.8484 128.4483)
(13.78637 172.922 136.4794)
(13.48974 172.905 134.6234)
(13.24916 172.8853 132.4639)
(10.38218 172.724 133.9064)
(13.12559 172.867 130.4639)
(11.05486 172.724 138.1058)
(12.09947 172.724 142.1547)
(14.68831 172.9579 140.3641)
(13.49754 172.724 146.0421)
(15.93552 172.9922 144.0934)
(15.22973 172.724 149.7491)
(17.50986 173.0248 147.6537)
(17.27671 172.724 153.2569)
(19.39271 173.0553 151.0257)
(19.61951 172.724 156.55)
(21.56567 173.0839 154.1949)
(22.23891 172.724 159.6109)
(24.01008 173.1102 157.1437)
(25.11568 172.724 162.4221)
(26.70724 173.1343 159.8544)
(28.23092 172.724 164.9665)
(29.63797 173.156 162.3096)
(31.56551 172.724 167.2273)
(32.78301 173.1753 164.4922)
(35.09991 172.724 169.1872)
(36.12351 173.192 166.3854)
(38.8146 172.724 170.8291)
(39.64065 173.206 167.9724)
(42.69204 172.724 172.1359)
(43.31516 173.2172 169.2357)
(46.71134 172.724 173.0906)
(47.12856 173.2254 170.159)
(50.85166 172.724 173.6759)
(51.05984 173.2303 170.7254)
(55.1 172.724 173.8748)
(55.1 173.232 170.9181)
(59.34834 172.724 173.6759)
(59.14016 173.2303 170.7254)
(63.48866 172.724 173.0906)
(63.07144 173.2254 170.159)
(67.50796 172.724 172.1359)
(66.88484 173.2172 169.2357)
(71.38539 172.724 170.8291)
(70.55935 173.206 167.9724)
(75.10009 172.724 169.1872)
(74.07649 173.192 166.3854)
(78.63449 172.724 167.2273)
(77.41699 173.1753 164.4922)
(81.96908 172.724 164.9665)
(80.56203 173.156 162.3096)
(85.08432 172.724 162.4221)
(83.49276 173.1343 159.8544)
(87.96109 172.724 159.6109)
(86.18992 173.1102 157.1437)
(90.58049 172.724 156.55)
(88.63433 173.0839 154.1949)
(92.92329 172.724 153.2569)
(90.80729 173.0553 151.0257)
(94.97027 172.724 149.7491)
(92.69014 173.0248 147.6537)
(96.70246 172.724 146.0421)
(94.26448 172.9922 144.0934)
(98.10053 172.724 142.1547)
(95.51169 172.9579 140.3641)
(99.14513 172.724 138.1058)
(96.41363 172.922 136.4794)
(96.71026 172.905 134.6234)
(99.81782 172.724 133.9064)
(96.95084 172.8853 132.4639)
(97.07441 172.867 130.4639)
(100.0952 172.724 129.6624)
(97.10291 172.8484 128.4483)
(99.97644 172.724 125.4826)
(96.87753 172.8116 124.4978)
(99.47718 172.724 121.3818)
(96.2892 172.7752 120.6327)
(98.61208 172.724 117.3825)
(95.35244 172.7394 116.8732)
(97.3958 172.724 113.5075)
(94.08175 172.7046 113.2399)
(95.84337 172.724 109.7761)
(92.49165 172.6709 109.753)
(93.96966 172.724 106.2097)
(90.59665 172.6386 106.4329)
(91.78953 172.724 102.8295)
(88.41124 172.6081 103.2998)
(89.31783 172.724 99.65654)
(85.95017 172.5793 100.3749)
(86.56938 172.724 96.71147)
(83.22826 172.5524 97.6792)
(83.55906 172.724 94.01523)
(80.26023 172.5277 95.23345)
(80.30174 172.724 91.58877)
(77.06079 172.5055 93.05822)
(76.81231 172.724 89.45306)
(73.64432 172.4858 91.17391)
(73.10562 172.724 87.62906)
(70.02454 172.4688 89.60074)
(69.19656 172.724 86.13773)
(66.21477 172.4552 88.35915)
(65.1 160.9877 63.33797)
(62.1 160.9877 63.33797)
(65.1 151.9305 61.06203)
(62.1 151.9305 61.06203)
(65.1 144.1155 58.09768)
(62.1 144.1155 58.09768)
(65.1 136.6125 54.02519)
(62.1 136.6125 54.02519)
(65.1 130.1007 49.12805)
(62.1 130.1007 49.12805)
(65.1 124.3413 43.32043)
(62.1 124.3413 43.32043)
(65.1 119.2146 36.52438)
(62.1 119.2146 36.52438)
(65.1 115.1664 29.5254)
(62.1 115.1664 29.5254)
(65.1 111.5711 21.09852)
(62.1 111.5711 21.09852)
(65.1 109.0984 12.29081)
(62.1 109.0984 12.29081)
(65.1 107.8633 3.452807)
(62.1 107.8633 3.452807)
(65.1 107.8836 -5.122694)
(62.1 107.8836 -5.122694)
(65.1 108.3309 -9.269515)
(62.1 108.3309 -9.269515)
(65.1 110.078 -17.53657)
(62.1 110.078 -17.53657)
(65.1 112.9436 -25.6156)
(62.1 112.9436 -25.6156)
(65.1 116.9045 -33.35414)
(62.1 116.9045 -33.35414)
(65.1 121.5557 -40.11483)
(62.1 121.5557 -40.11483)
(65.1 127.3715 -46.55822)
(62.1 127.3715 -46.55822)
(65.1 133.9332 -52.09093)
(62.1 133.9332 -52.09093)
(65.1 141.2261 -56.7541)
(62.1 141.2261 -56.7541)
(65.1 149.1954 -60.49152)
(62.1 149.1954 -60.49152)
(65.1 157.5704 -63.14797)
(62.1 157.5704 -63.14797)
(65.1 166.2093 -64.65869)
(62.1 166.2093 -64.65869)
(65.1 174.8356 -64.96255)
(62.1 174.8356 -64.96255)
(65.1 183.2748 -64.09577)
(62.1 183.2748 -64.09577)
(65.1 191.7535 -62.06296)
(62.1 191.7535 -62.06296)
(65.1 199.9414 -58.91855)
(62.1 199.9414 -58.91855)
(65.1 207.7143 -54.69225)
(62.1 207.7143 -54.69225)
(65.1 214.825 -49.4909)
(62.1 214.825 -49.4909)
(65.1 221.0822 -43.44748)
(62.1 221.0822 -43.44748)
(65.1 223.7618 -40.27557)
(62.1 223.7618 -40.27557)
(65.1 228.6617 -33.15448)
(62.1 228.6617 -33.15448)
(65.1 232.6144 -25.37353)
(62.1 232.6144 -25.37353)
(65.1 235.4955 -17.12472)
(62.1 235.4955 -17.12472)
(65.1 237.2132 -8.62953)
(62.1 237.2132 -8.62953)
(65.1 237.6937 -2.804358)
(62.1 237.6937 -2.804358)
(65.1 237.3916 5.633071)
(62.1 237.3916 5.633071)
(65.1 235.9681 13.97936)
(62.1 235.9681 13.97936)
(65.1 233.4201 22.37053)
(62.1 233.4201 22.37053)
(65.1 229.7629 30.56781)
(62.1 229.7629 30.56781)
(65.1 225.0906 38.2349)
(62.1 225.0906 38.2349)
(65.1 219.6952 44.90425)
(62.1 219.6952 44.90425)
(65.1 213.6035 50.56785)
(62.1 213.6035 50.56785)
(65.1 206.9459 55.15894)
(62.1 206.9459 55.15894)
(65.1 199.5442 58.86747)
(62.1 199.5442 58.86747)
(65.1 191.2013 61.78047)
(62.1 191.2013 61.78047)
(65.1 181.6706 63.92467)
(62.1 181.6706 63.92467)
(56.94969 174.0739 82.02047)
(57.72236 174.0463 82.01736)
(59.03354 173.9766 82.01065)
(60.34473 173.8844 82.00429)
(61.65591 173.7741 82.00042)
(60.1 173.724 85)
(58.85 173.724 85)
(57.6 173.724 85)
(56.35 173.724 85)
(55.1 173.724 85)
(56.41118 174.0873 82.02207)
(51.975 173.724 85)
(51.35 173.724 85)
(52.30643 174.0388 82.01656)
(52.47764 174.0463 82.01736)
(52.6 173.724 85)
(53.225 173.724 85)
(53.13323 174.0704 82.02006)
(53.85 173.724 85)
(53.78882 174.0873 82.02207)
(54.475 173.724 85)
(54.44441 174.0973 82.02332)
(55.1 174.1007 82.02373)
(50.725 173.724 85)
(50.3 173.724 85)
(51.82205 174.0149 82.01413)
(50.1 173.724 85)
(50.51086 173.9329 82.00728)
(51.16646 173.9766 82.01065)
(48.85 173.724 85)
(48.225 173.724 85)
(48.54409 173.7741 82.00042)
(49.475 173.724 85)
(49.19968 173.8314 82.00192)
(49.85527 173.8844 82.00429)
(47.7 173.724 85)
(47.6 173.724 85)
(46.975 173.724 85)
(46.35 173.724 85)
(45.725 173.724 85)
(63.85 173.724 85)
(62.6 173.724 85)
(61.35 173.724 85)
(48.1 181.6706 63.92467)
(48.1 191.2013 61.78047)
(48.1 199.5442 58.86747)
(48.1 206.9459 55.15894)
(48.1 213.6035 50.56785)
(48.1 219.6952 44.90425)
(48.1 225.0906 38.2349)
(48.1 229.7629 30.56781)
(48.1 233.4201 22.37053)
(48.1 235.9681 13.97936)
(48.1 237.3916 5.633071)
(48.1 237.6937 -2.804358)
(48.1 237.2132 -8.62953)
(48.1 235.4955 -17.12472)
(48.1 232.6144 -25.37353)
(48.1 228.6617 -33.15448)
(48.1 223.7618 -40.27557)
(48.1 221.0822 -43.44748)
(48.1 214.825 -49.4909)
(48.1 207.7143 -54.69225)
(48.1 199.9414 -58.91855)
(48.1 191.7535 -62.06296)
(48.1 183.2748 -64.09577)
(48.1 174.8356 -64.96255)
(48.1 166.2093 -64.65869)
(48.1 157.5704 -63.14797)
(48.1 149.1954 -60.49152)
(48.1 141.2261 -56.7541)
(48.1 133.9332 -52.09093)
(48.1 127.3715 -46.55822)
(48.1 121.5557 -40.11483)
(48.1 116.9045 -33.35414)
(48.1 112.9436 -25.6156)
(48.1 110.078 -17.53657)
(48.1 108.3309 -9.269515)
(48.1 107.8836 -5.122694)
(48.1 107.8633 3.452807)
(48.1 109.0984 12.29081)
(48.1 111.5711 21.09852)
(48.1 115.1664 29.5254)
(48.1 119.2146 36.52438)
(48.1 124.3413 43.32043)
(48.1 130.1007 49.12805)
(48.1 136.6125 54.02519)
(48.1 144.1155 58.09768)
(48.1 151.9305 61.06203)
(48.1 160.9877 63.33797)
(48.1 137.3462 79.42072)
(48.1 135.9952 78.85349)
(48.1 118.3333 68.39687)
(48.1 114.4398 65.09512)
(48.1 119.8689 69.57986)
(48.1 155.1578 84.80848)
(48.1 153.4903 84.44282)
(48.1 122.4275 71.41583)
(48.1 126.0631 73.76055)
(48.1 132.6814 77.34409)
(48.1 131.2669 76.64523)
(48.1 126.7388 74.16493)
(48.1 147.9354 83.03899)
(48.1 142.5533 81.37143)
(48.1 139.7304 80.35856)
(48.1 110.9512 61.72131)
(48.1 108.7266 59.33581)
(48.1 114.0925 64.77793)
(48.1 171.1739 87.25549)
(48.1 165.1114 86.53343)
(48.1 159.2163 85.60163)
(48.1 152.9019 -84.65131)
(48.1 155.1242 -85.14751)
(48.1 160.418 -86.08668)
(48.1 165.7367 -86.68974)
(48.1 171.0751 -86.9526)
(48.1 172.7304 -86.96395)
(48.1 85.98669 8.263669)
(48.1 85.62018 3.910178)
(48.1 85.48682 -1.430056)
(48.1 91.50438 30.80747)
(48.1 89.66198 25.52922)
(48.1 89.32237 24.4321)
(48.1 88.1473 20.19385)
(48.1 103.7471 53.22285)
(48.1 100.5287 48.58408)
(48.1 107.2233 57.60971)
(48.1 87.28403 16.43167)
(48.1 86.96342 14.80886)
(48.1 86.10738 9.299416)
(48.1 244.3681 46.89858)
(48.1 241.269 51.35164)
(48.1 259.0747 -0.575241)
(48.1 258.9522 3.031875)
(48.1 255.1089 -26.63603)
(48.1 256.5806 -21.47287)
(48.1 257.7118 -16.28107)
(48.1 258.5054 -11.06571)
(48.1 258.961 -5.830317)
(48.1 251.0179 -37.05827)
(48.1 253.1798 -32.04608)
(48.1 220.8848 -72.11583)
(48.1 221.7075 -71.56102)
(48.1 226.1397 -68.32607)
(48.1 178.1707 -86.76665)
(48.1 183.5971 -86.215)
(48.1 149.8613 -83.87315)
(48.1 144.6358 -82.26132)
(48.1 109.6098 -60.07296)
(48.1 112.8497 -63.26575)
(48.1 115.6972 -65.80745)
(48.1 116.9441 -66.85123)
(48.1 119.247 -68.67819)
(48.1 95.54071 -40.5914)
(48.1 98.27009 -45.37542)
(48.1 98.98275 -46.51826)
(48.1 89.22376 -25.3465)
(48.1 91.01152 -30.56737)
(48.1 86.99943 -16.44257)
(48.1 87.19116 -17.404)
(48.1 87.76645 -19.99839)
(48.1 88.96112 -24.47561)
(48.1 85.70606 -6.757782)
(48.1 85.83111 -8.260603)
(48.1 86.27445 -12.08491)
(48.1 97.57749 43.71518)
(48.1 95.39992 39.63477)
(48.1 99.33198 46.6897)
(48.1 258.4541 8.551225)
(48.1 257.5923 14.04697)
(48.1 136.9442 -79.22385)
(48.1 138.4811 -79.89705)
(48.1 143.6694 -81.92418)
(48.1 91.68515 -32.293)
(48.1 93.12013 -35.65319)
(48.1 95.14131 -39.82827)
(48.1 254.8159 24.91138)
(48.1 252.9141 30.2466)
(48.1 256.377 19.5056)
(48.1 230.3216 -64.84766)
(48.1 234.2436 -61.13698)
(48.1 237.9188 -57.1815)
(48.1 241.3578 -52.97048)
(48.1 216.1947 -75.03263)
(48.1 211.334 -77.65102)
(48.1 133.4348 -77.55555)
(48.1 129.4343 -75.41865)
(48.1 122.3289 -70.93461)
(48.1 123.8028 -71.94329)
(48.1 128.5373 -74.9031)
(48.1 105.4283 -55.38836)
(48.1 109.0182 -59.45123)
(48.1 99.30009 -47.0148)
(48.1 102.0786 -51.07378)
(48.1 104.1325 -53.78558)
(48.1 94.90518 38.63652)
(48.1 93.67562 36.01955)
(48.1 92.04578 32.191)
(48.1 252.0778 32.31112)