/*--------------------------------*- C++ -*----------------------------------*\
| =========                 |                                                 |
| \\      /  F ield         | OpenFOAM: The Open Source CFD Toolbox           |
|  \\    /   O peration     | Version:  v2006                                 |
|   \\  /    A nd           | Website:  www.openfoam.com                      |
|    \\/     M anipulation  |                                                 |
\*---------------------------------------------------------------------------*/
FoamFile
{
    version     2.0;
    format      ascii;
    class       extendedFeatureEdgeMesh;
    location    "constant/extendedFeatureEdgeMesh";
    object      impeller.extendedFeatureEdgeMesh;
}
// * * * * * * * * * * * * * * * * * * * * * * * * * * * * * * * * * * * * * //

// points

1421
(
(62.1 139.949 -53.16818)
(62.1 110.2915 1.799928)
(62.1 143.0666 54.96811)
(62.1 205.4991 53.16818)
(62.1 235.1565 -1.799928)
(62.1 202.3815 -54.96811)
(14.1 180.6981 -4.860749)
(14.1 180.9206 4.475348)
(14.1 172.9465 9.336097)
(14.1 164.75 4.860749)
(14.1 164.5275 -4.475348)
(14.1 172.5015 -9.336097)
(62.1 163.8905 -4.687151)
(62.1 170.2816 -9.697133)
(62.1 163.1048 -2.733334)
(62.1 164.2481 5.306455)
(62.1 165.5473 6.963799)
(62.1 173.0816 9.993605)
(62.1 175.1665 9.697133)
(62.1 181.5575 4.687151)
(62.1 182.3432 2.733334)
(62.1 181.2 -5.306455)
(62.1 179.9008 -6.963799)
(62.1 172.3665 -9.993605)
(62.1 140.7527 -56.59359)
(62.1 142.045 -54.40692)
(62.1 140.0682 -53.23863)
(62.1 139.946 -53.15305)
(62.1 139.8989 -52.90848)
(20.1 162.9673 -2.19232)
(20.1 168.5527 -9.08843)
(62.1 107.7269 -0.6088216)
(62.1 110.2668 -0.6346606)
(62.1 110.2901 1.661462)
(62.1 110.3031 1.810054)
(62.1 110.4914 1.973135)
(20.1 165.9471 7.353413)
(20.1 162.7675 -0.93169)
(62.1 139.6982 55.98477)
(62.1 140.9458 53.77226)
(62.1 142.9459 54.90009)
(62.1 143.0811 54.9631)
(62.1 143.3165 54.88161)
(20.1 175.7038 9.545734)
(20.1 166.9389 8.15674)
(62.1 204.6954 56.59359)
(62.1 203.403 54.40692)
(62.1 205.3799 53.23863)
(62.1 205.502 53.15305)
(20.1 182.4808 2.19232)
(20.1 176.8954 9.08843)
(62.1 237.7212 0.6088216)
(62.1 235.1813 0.6346606)
(62.1 235.158 -1.661462)
(62.1 235.1449 -1.810054)
(20.1 179.501 -7.353413)
(20.1 182.6805 0.93169)
(62.1 205.7499 -55.98477)
(62.1 204.5023 -53.77226)
(62.1 202.3669 -54.9631)
(62.1 202.5021 -54.90009)
(20.1 169.7443 -9.545734)
(20.1 178.5092 -8.15674)
(20.1 167.0532 4.218434)
(20.1 166.2353 -2.801901)
(20.1 178.3949 -4.218434)
(20.1 172.2367 -8.30602)
(20.1 171.9062 -7.020336)
(20.1 165.7745 4.57504)
(20.1 179.2127 2.801901)
(20.1 165.2872 -3.73098)
(20.1 173.2114 8.30602)
(20.1 173.5419 7.020336)
(20.1 179.6736 -4.57504)
(20.1 180.1609 3.73098)
(62.1 139.6531 -55.95812)
(62.1 138.566 -55.30128)
(62.1 203.5374 -57.23233)
(62.1 202.3637 -57.84884)
(62.1 175.8111 -64.92665)
(62.1 168.8924 -64.88696)
(62.1 162.017 -64.11208)
(62.1 155.263 -62.61079)
(62.1 148.7068 -60.40009)
(62.1 142.4227 -57.50503)
(62.1 182.6949 -64.23069)
(62.1 189.4657 -62.80697)
(62.1 196.0469 -60.67162)
(20.1 163.1432 -2.864983)
(20.1 163.7751 -4.462729)
(20.1 164.6711 -5.928735)
(20.1 165.8048 -7.219723)
(20.1 167.1428 -8.297585)
(62.1 107.7274 0.6612384)
(62.1 107.7527 1.931047)
(62.1 114.1067 -28.08922)
(62.1 111.4531 -21.69945)
(62.1 125.895 -45.07819)
(62.1 121.3688 -39.84519)
(62.1 130.9518 -49.80043)
(62.1 109.4937 -15.06381)
(62.1 108.2507 -8.257491)
(62.1 107.7382 -1.357613)
(62.1 117.4245 -34.16073)
(62.1 136.4819 -53.95842)
(20.1 165.4525 6.864731)
(20.1 164.3847 5.51867)
(20.1 163.5631 4.009697)
(20.1 163.012 2.382358)
(20.1 162.7475 0.6846912)
(62.1 140.0475 56.18936)
(62.1 141.9107 57.23233)
(62.1 134.2601 52.39774)
(62.1 119.7495 37.66565)
(62.1 124.0533 43.08311)
(62.1 128.9084 48.01243)
(62.1 108.9197 12.40994)
(62.1 110.6003 19.12162)
(62.1 112.9847 25.61664)
(62.1 116.046 31.82142)
(62.1 107.9621 5.557648)
(20.1 175.0333 9.729714)
(20.1 173.3337 9.981399)
(20.1 171.6161 9.938432)
(20.1 169.9312 9.602081)
(20.1 168.3287 8.982276)
(62.1 206.043 55.81083)
(62.1 206.882 55.30128)
(62.1 199.9219 59.03623)
(62.1 193.4926 61.59274)
(62.1 166.1858 64.67033)
(62.1 173.0969 64.99893)
(62.1 180.0037 64.59107)
(62.1 186.8281 63.45137)
(62.1 152.6633 61.82692)
(62.1 159.3488 63.60898)
(62.1 146.2052 59.34434)
(20.1 182.3048 2.864983)
(20.1 181.673 4.462729)
(20.1 180.777 5.928735)
(20.1 179.6433 7.219723)
(20.1 178.3053 8.297585)
(62.1 237.7207 -0.6612384)
(62.1 237.6953 -1.931047)
(62.1 237.5455 4.814375)
(62.1 217.0875 47.50664)
(62.1 221.8858 42.52196)
(62.1 211.7865 51.95306)
(62.1 229.7634 31.16915)
(62.1 232.7533 24.92967)
(62.1 236.6665 11.6772)
(62.1 235.0631 18.40772)
(62.1 226.1271 37.05548)
(20.1 179.9956 -6.864731)
(20.1 181.0634 -5.51867)
(20.1 181.885 -4.009697)
(20.1 182.4361 -2.382358)
(20.1 182.7006 -0.6846912)
(62.1 204.6497 -56.61936)
(64.1 193.4926 61.59274)
(64.1 199.9219 59.03623)
(64.1 108.2507 -8.257491)
(64.1 107.7382 -1.357613)
(64.1 109.4937 -15.06381)
(64.1 111.4531 -21.69945)
(64.1 114.1067 -28.08922)
(64.1 117.4245 -34.16073)
(64.1 121.3688 -39.84519)
(64.1 125.895 -45.07819)
(64.1 130.9518 -49.80043)
(64.1 136.4819 -53.95842)
(64.1 142.4227 -57.50503)
(64.1 128.9084 48.01243)
(64.1 134.2601 52.39774)
(64.1 124.0533 43.08311)
(64.1 119.7495 37.66565)
(64.1 116.046 31.82142)
(64.1 112.9847 25.61664)
(64.1 110.6003 19.12162)
(64.1 108.9197 12.40994)
(64.1 107.9621 5.557648)
(64.1 140.0475 56.18936)
(64.1 146.2052 59.34434)
(64.1 152.6633 61.82692)
(64.1 159.3488 63.60898)
(64.1 166.1858 64.67033)
(64.1 173.0969 64.99893)
(64.1 180.0037 64.59107)
(64.1 186.8281 63.45137)
(64.1 190.1851 62.61079)
(64.1 206.043 55.81083)
(64.1 236.6665 11.6772)
(64.1 237.5455 4.814375)
(64.1 235.0631 18.40772)
(64.1 232.7533 24.92967)
(64.1 229.7634 31.16915)
(64.1 226.1271 37.05548)
(64.1 221.8858 42.52196)
(64.1 217.0875 47.50664)
(64.1 211.7865 51.95306)
(64.1 237.69 -2.102997)
(62.1 237.69 -2.102997)
(64.1 237.0984 -8.996543)
(62.1 237.0984 -8.996543)
(64.1 235.7775 -15.78816)
(62.1 235.7775 -15.78816)
(64.1 233.7421 -22.40088)
(62.1 233.7421 -22.40088)
(64.1 231.0153 -28.75979)
(62.1 231.0153 -28.75979)
(64.1 227.6281 -34.79285)
(62.1 227.6281 -34.79285)
(64.1 223.6188 -40.43168)
(62.1 223.6188 -40.43168)
(64.1 219.0329 -45.61242)
(62.1 219.0329 -45.61242)
(64.1 213.9222 -50.27634)
(62.1 213.9222 -50.27634)
(64.1 208.3448 -54.37061)
(62.1 208.3448 -54.37061)
(64.1 202.3637 -57.84884)
(64.1 148.7068 -60.40009)
(64.1 155.263 -62.61079)
(64.1 162.017 -64.11208)
(64.1 168.8924 -64.88696)
(64.1 175.8111 -64.92665)
(64.1 182.6949 -64.23069)
(64.1 189.4657 -62.80697)
(64.1 196.0469 -60.67162)
(20.1 170.4148 -9.729714)
(20.1 172.1144 -9.981399)
(20.1 173.832 -9.938432)
(20.1 175.5169 -9.602081)
(20.1 177.1193 -8.982276)
(61.35 204.818 -55.6471)
(61.725 205.2823 -55.81861)
(17.0848 179.5098 -4.529347)
(17.1 179.7579 -9.059326)
(20.1 179.2084 -13.21947)
(61.9125 205.5157 -55.90236)
(56.1 198.6761 -52.70665)
(57.6 200.3609 -53.64658)
(59.1 202.1025 -54.50794)
(59.85 202.9941 -54.90837)
(60.6 203.8993 -55.28819)
(60.975 204.357 -55.47028)
(54.6 197.0496 -51.6907)
(23.1 179.0375 -17.32076)
(26.1 179.2331 -21.34275)
(29.1 179.7829 -25.26502)
(32.1 180.675 -29.06713)
(35.1 181.8971 -32.72865)
(38.1 183.4372 -36.22916)
(41.1 185.2832 -39.54821)
(44.1 187.4228 -42.66539)
(47.1 189.844 -45.56025)
(50.1 192.5348 -48.21237)
(53.1 195.4828 -50.60131)
(18.36704 180.1766 -4.715312)
(16.64 180.6981 -4.860749)
(47.89375 188.9864 -44.03915)
(50.735 191.5991 -46.55298)
(53.57625 194.4692 -48.80364)
(54.99687 195.9969 -49.8239)
(56.4175 197.5845 -50.7707)
(57.83812 199.2303 -51.64149)
(59.25875 200.9329 -52.43371)
(59.96906 201.805 -52.79957)
(60.67937 202.6907 -53.14482)
(61.03453 203.1387 -53.30963)
(61.38969 203.5899 -53.46916)
(61.74484 204.0445 -53.62338)
(61.92242 204.273 -53.69849)
(61.35 236.9628 -0.02938965)
(61.725 237.3435 0.2869559)
(17.0848 180.0394 3.611932)
(17.1 184.0866 1.561855)
(20.1 187.4146 -0.9940778)
(61.9125 237.5327 0.447198)
(56.1 231.3454 -3.878176)
(57.6 233.0018 -2.889049)
(59.1 234.6185 -1.811483)
(59.85 235.4111 -1.239546)
(60.6 236.1927 -0.6455141)
(60.975 236.5792 -0.3402129)
(54.6 229.6523 -4.778831)
(23.1 190.881 -3.192731)
(26.1 194.4619 -5.034388)
(29.1 198.1336 -6.519329)
(32.1 201.8724 -7.647838)
(35.1 205.6544 -8.420197)
(38.1 209.456 -8.836686)
(41.1 213.2534 -8.897589)
(44.1 217.0227 -8.603187)
(47.1 220.7404 -7.953763)
(50.1 224.3825 -6.949598)
(53.1 227.9254 -5.590976)
(18.36704 180.5339 4.096436)
(16.64 180.9206 4.475348)
(47.89375 218.9942 -7.935999)
(50.735 222.4776 -6.930219)
(53.57625 225.8618 -5.569982)
(54.99687 227.5092 -4.757028)
(56.4175 229.123 -3.855567)
(57.83812 230.7 -2.865633)
(59.25875 232.2374 -1.78726)
(59.96906 232.9903 -1.214919)
(60.67937 233.7322 -0.6204821)
(61.03453 234.0988 -0.3149787)
(61.38969 234.4626 -0.003953269)
(61.74484 234.8235 0.3125927)
(61.92242 235.0028 0.4729373)
(61.35 204.8689 55.61771)
(61.725 204.7853 56.10557)
(17.0848 173.2537 8.141279)
(17.1 177.0527 10.62118)
(20.1 180.9302 12.2254)
(61.9125 204.7411 56.34956)
(56.1 205.3933 48.82847)
(57.6 205.3649 50.75753)
(59.1 205.2401 52.69646)
(59.85 205.1411 53.66882)
(60.6 205.0174 54.64268)
(60.975 204.9462 55.13007)
(54.6 205.3267 46.91187)
(23.1 184.5675 14.12803)
(26.1 187.9529 16.30836)
(29.1 191.0747 18.74569)
(32.1 193.9214 21.41929)
(35.1 196.4813 24.30845)
(38.1 198.7428 27.39247)
(41.1 200.6942 30.65062)
(44.1 202.324 34.0622)
(47.1 203.6204 37.60649)
(50.1 204.5718 41.26277)
(53.1 205.1667 45.01033)
(18.36704 173.0813 8.811748)
(16.64 172.9465 9.336097)
(47.89375 202.7319 36.10315)
(50.735 203.6026 39.62276)
(53.57625 204.1167 43.23366)
(54.99687 204.2364 45.06687)
(56.4175 204.2625 46.91513)
(57.83812 204.1937 48.77586)
(59.25875 204.0285 50.64646)
(59.96906 203.9093 51.58465)
(60.67937 203.7655 52.52434)
(61.03453 203.6842 52.99465)
(61.38969 203.5968 53.46521)
(61.74484 203.503 53.93598)
(61.92242 203.4538 54.17143)
(61.35 140.6301 55.6471)
(61.725 140.1658 55.81861)
(17.0848 165.9383 4.529347)
(17.1 165.6902 9.059326)
(20.1 166.2396 13.21947)
(61.9125 139.9324 55.90236)
(56.1 146.772 52.70665)
(57.6 145.0872 53.64658)
(59.1 143.3456 54.50794)
(59.85 142.454 54.90837)
(60.6 141.5488 55.28819)
(60.975 141.0911 55.47028)
(54.6 148.3985 51.6907)
(23.1 166.4105 17.32076)
(26.1 166.215 21.34275)
(29.1 165.6651 25.26502)
(32.1 164.7731 29.06713)
(35.1 163.5509 32.72865)
(38.1 162.0109 36.22916)
(41.1 160.1649 39.54821)
(44.1 158.0253 42.66539)
(47.1 155.604 45.56025)
(50.1 152.9133 48.21237)
(53.1 149.9653 50.60131)
(18.36704 165.2715 4.715312)
(16.64 164.75 4.860749)
(47.89375 156.4617 44.03915)
(50.735 153.849 46.55298)
(53.57625 150.9789 48.80364)
(54.99687 149.4511 49.8239)
(56.4175 147.8636 50.7707)
(57.83812 146.2178 51.64149)
(59.25875 144.5152 52.43371)
(59.96906 143.6431 52.79957)
(60.67937 142.7573 53.14482)
(61.03453 142.3094 53.30963)
(61.38969 141.8582 53.46916)
(61.74484 141.4036 53.62338)
(61.92242 141.1751 53.69849)
(61.35 108.4853 0.02938965)
(61.725 108.1046 -0.2869559)
(17.0848 165.4086 -3.611932)
(17.1 161.3615 -1.561855)
(20.1 158.0334 0.9940778)
(61.9125 107.9154 -0.447198)
(56.1 114.1027 3.878176)
(57.6 112.4463 2.889049)
(59.1 110.8295 1.811483)
(59.85 110.037 1.239546)
(60.6 109.2554 0.6455141)
(60.975 108.8689 0.3402129)
(54.6 115.7958 4.778831)
(23.1 154.5671 3.192731)
(26.1 150.9862 5.034388)
(29.1 147.3144 6.519329)
(32.1 143.5757 7.647838)
(35.1 139.7936 8.420197)
(38.1 135.9921 8.836686)
(41.1 132.1947 8.897589)
(44.1 128.4253 8.603187)
(47.1 124.7077 7.953763)
(50.1 121.0655 6.949598)
(53.1 117.5226 5.590976)
(18.36704 164.9142 -4.096436)
(16.64 164.5275 -4.475348)
(47.89375 126.4539 7.935999)
(50.735 122.9704 6.930219)
(53.57625 119.5863 5.569982)
(54.99687 117.9388 4.757028)
(56.4175 116.3251 3.855567)
(57.83812 114.7481 2.865633)
(59.25875 113.2107 1.78726)
(59.96906 112.4578 1.214919)
(60.67937 111.7159 0.6204821)
(61.03453 111.3492 0.3149787)
(61.38969 110.9855 0.003953269)
(61.74484 110.6246 -0.3125927)
(61.92242 110.4453 -0.4729373)
(61.35 140.5792 -55.61771)
(61.725 140.6628 -56.10557)
(17.0848 172.1944 -8.141279)
(17.1 168.3954 -10.62118)
(20.1 164.5178 -12.2254)
(61.9125 140.707 -56.34956)
(56.1 140.0548 -48.82847)
(57.6 140.0832 -50.75753)
(59.1 140.208 -52.69646)
(59.85 140.307 -53.66882)
(60.6 140.4307 -54.64268)
(60.975 140.5018 -55.13007)
(54.6 140.1213 -46.91187)
(23.1 160.8806 -14.12803)
(26.1 157.4952 -16.30836)
(29.1 154.3733 -18.74569)
(32.1 151.5266 -21.41929)
(35.1 148.9667 -24.30845)
(38.1 146.7053 -27.39247)
(41.1 144.7538 -30.65062)
(44.1 143.1241 -34.0622)
(47.1 141.8277 -37.60649)
(50.1 140.8763 -41.26277)
(53.1 140.2814 -45.01033)
(18.36704 172.3667 -8.811748)
(16.64 172.5015 -9.336097)
(47.89375 142.7162 -36.10315)
(50.735 141.8455 -39.62276)
(53.57625 141.3314 -43.23366)
(54.99687 141.2117 -45.06687)
(56.4175 141.1856 -46.91513)
(57.83812 141.2543 -48.77586)
(59.25875 141.4195 -50.64646)
(59.96906 141.5388 -51.58465)
(60.67937 141.6826 -52.52434)
(61.03453 141.7639 -52.99465)
(61.38969 141.8513 -53.46521)
(61.74484 141.945 -53.93598)
(61.92242 141.9942 -54.17143)
(79.1 177.9058 10.82354)
(79.1 175.9476 11.55891)
(79.1 179.7066 9.759296)
(79.1 181.2952 8.398522)
(79.1 182.6234 6.782563)
(79.1 183.6508 4.96052)
(79.1 184.3461 2.987753)
(79.1 184.6884 0.9242046)
(79.1 184.6671 -1.167425)
(79.1 184.283 -3.223583)
(79.1 183.5476 -5.181794)
(79.1 182.4833 -6.982559)
(79.1 181.1226 -8.571162)
(79.1 179.5066 -9.899335)
(79.1 177.6846 -10.92672)
(79.1 175.7118 -11.62211)
(79.1 173.6482 -11.96436)
(79.1 171.5566 -11.94308)
(79.1 169.5005 -11.55891)
(79.1 167.5422 -10.82354)
(79.1 165.7415 -9.759296)
(79.1 164.1529 -8.398522)
(79.1 162.8247 -6.782563)
(79.1 161.7973 -4.96052)
(79.1 161.1019 -2.987753)
(79.1 160.7597 -0.9242046)
(79.1 160.781 1.167425)
(79.1 161.1651 3.223583)
(79.1 161.9005 5.181794)
(79.1 162.9647 6.982559)
(79.1 164.3255 8.571162)
(79.1 165.9415 9.899335)
(79.1 167.7635 10.92672)
(79.1 169.7363 11.62211)
(79.1 171.7998 11.96436)
(79.1 173.8915 11.94308)
(79.1 178.9247 -13.6584)
(79.1 181.2022 -12.37417)
(79.1 183.2222 -10.71395)
(79.1 184.9232 -8.728199)
(79.1 186.2535 -6.477243)
(79.1 187.1727 -4.029479)
(79.1 187.6529 -1.459281)
(79.1 187.6795 1.155256)
(79.1 187.2517 3.734691)
(79.1 186.3824 6.200649)
(79.1 185.0982 8.478204)
(79.1 183.438 10.49815)
(79.1 181.4522 12.19912)
(79.1 179.2013 13.52942)
(79.1 176.7535 14.44864)
(79.1 174.1833 14.92885)
(79.1 171.5688 14.95545)
(79.1 168.9893 14.52763)
(79.1 166.5234 13.6584)
(79.1 164.2458 12.37417)
(79.1 162.2259 10.71395)
(79.1 160.5249 8.728199)
(79.1 159.1946 6.477243)
(79.1 158.2754 4.029479)
(79.1 157.7952 1.459281)
(79.1 157.7686 -1.155256)
(79.1 158.1964 -3.734691)
(79.1 159.0656 -6.200649)
(79.1 160.3499 -8.478204)
(79.1 162.0101 -10.49815)
(79.1 163.9958 -12.19912)
(79.1 166.2468 -13.52942)
(79.1 168.6946 -14.44864)
(79.1 171.2648 -14.92885)
(79.1 173.8793 -14.95545)
(79.1 176.4587 -14.52763)
(64.1 170.72 -7.185792)
(64.1 171.9983 -7.424614)
(64.1 173.2986 -7.437842)
(64.1 174.5814 -7.225075)
(64.1 175.8078 -6.792779)
(64.1 176.9405 -6.154087)
(64.1 177.9451 -5.328406)
(64.1 178.7911 -4.340824)
(64.1 179.4527 -3.221349)
(64.1 179.9098 -2.003994)
(64.1 180.1487 -0.7257492)
(64.1 180.1619 0.5745471)
(64.1 179.9491 1.857386)
(64.1 179.5168 3.083789)
(64.1 178.8781 4.216494)
(64.1 178.0524 5.221081)
(64.1 177.0649 6.067029)
(64.1 175.9454 6.728634)
(64.1 174.728 7.185792)
(64.1 173.4498 7.424614)
(64.1 172.1495 7.437842)
(64.1 170.8667 7.225075)
(64.1 169.6402 6.792779)
(64.1 168.5075 6.154087)
(64.1 167.503 5.328406)
(64.1 166.657 4.340824)
(64.1 165.9954 3.221349)
(64.1 165.5382 2.003994)
(64.1 165.2994 0.7257492)
(64.1 165.2862 -0.5745471)
(64.1 165.499 -1.857386)
(64.1 165.9313 -3.083789)
(64.1 166.57 -4.216494)
(64.1 167.3956 -5.221081)
(64.1 168.3832 -6.067029)
(64.1 169.5027 -6.728634)
(62.1 140.4794 -56.43205)
(62.1 139.7961 -56.02821)
(62.1 139.9327 -56.10898)
(62.1 140.0694 -56.18974)
(62.1 140.2061 -56.27051)
(62.1 164.7612 -6.049178)
(62.1 161.5587 -5.957987)
(62.1 139.5924 -51.09191)
(62.1 139.5188 -50.57348)
(62.1 175.025 -30.97959)
(62.1 177.3987 -35.47741)
(62.1 179.8783 -39.26335)
(62.1 183.0282 -43.20824)
(62.1 139.4514 -50.05538)
(62.1 139.3832 -49.47559)
(62.1 139.335 -49.02035)
(62.1 141.7815 -54.25115)
(62.1 168.7833 -9.190807)
(62.1 185.2403 -45.55824)
(62.1 186.5377 -46.80649)
(62.1 188.4092 -48.46027)
(62.1 190.371 -50.02803)
(62.1 191.8356 -51.09913)
(62.1 194.494 -52.84861)
(62.1 197.431 -54.51926)
(62.1 198.8747 -55.24875)
(62.1 147.5398 -18.62678)
(62.1 148.4276 -17.44055)
(62.1 140.5311 -33.47621)
(62.1 140.6777 -32.92759)
(62.1 141.2639 -30.96843)
(62.1 141.9049 -29.13261)
(62.1 140.9907 -53.78383)
(62.1 140.7272 -53.62806)
(62.1 141.1225 -53.86172)
(62.1 140.5954 -53.55017)
(62.1 140.4636 -53.47229)
(62.1 140.3318 -53.3944)
(62.1 199.4117 -55.50559)
(62.1 200.4229 -55.96849)
(62.1 200.9336 -56.19223)
(62.1 142.0634 -28.71512)
(62.1 143.0633 -26.33118)
(62.1 143.4654 -25.47034)
(62.1 141.5179 -54.09538)
(62.1 141.3861 -54.01749)
(62.1 167.2682 -8.380586)
(62.1 141.2543 -53.93961)
(62.1 139.8504 -52.64881)
(62.1 149.899 -15.63889)
(62.1 150.0304 -15.48692)
(62.1 151.6583 -13.71022)
(62.1 155.8604 -9.874598)
(62.1 157.5797 -8.557378)
(62.1 159.7651 -7.057734)
(62.1 144.2001 -24.00955)
(62.1 145.4729 -21.75219)
(62.1 165.9142 -7.32297)
(62.1 146.8818 -19.56153)
(62.1 140.2 -53.31652)
(62.1 170.3095 -11.26652)
(62.1 170.6078 -15.31945)
(62.1 170.7365 -16.35292)
(62.1 153.5257 -11.88602)
(62.1 155.4998 -10.16771)
(62.1 139.2756 -48.38399)
(62.1 139.1756 -46.95607)
(62.1 139.1281 -45.78965)
(62.1 139.2699 -40.83283)
(62.1 139.5243 -38.55024)
(62.1 139.7955 -36.83457)
(62.1 139.952 -36.0041)
(62.1 171.2816 -19.59135)
(62.1 171.6731 -21.36628)
(62.1 172.3097 -23.76353)
(62.1 139.1201 -43.69153)
(62.1 139.247 -41.11312)
(62.1 139.8035 -52.38919)
(62.1 139.7582 -52.12962)
(62.1 139.7144 -51.8701)
(62.1 173.1083 -26.25852)
(62.1 173.68 -27.81556)
(62.1 139.6721 -51.61064)
(62.1 139.6265 -51.31855)
(62.1 201.4477 -56.41079)
(62.1 201.9651 -56.62412)
(62.1 202.2251 -56.72881)
(29.27273 162.7614 0.8640968)
(28.12537 162.7388 0.5440079)
(21.50473 162.8591 -1.638074)
(62.1 162.7942 -1.182663)
(58.70582 163.139 -2.850752)
(62.1 162.7383 0.5345697)
(26.55847 162.7244 0.08181717)
(23.9669 162.7524 -0.7523441)
(41.49345 163.3446 3.46789)
(37.3067 163.1029 2.726648)
(35.05096 162.9841 2.265608)
(62.1 162.9772 2.236022)
(32.10478 162.8517 1.592813)
(44.28212 163.5095 3.884779)
(62.1 163.5039 3.871467)
(45.78413 163.5966 4.085376)
(59.71047 164.2003 5.229299)
(54.96258 164.0502 4.976411)
(50.1699 163.8348 4.580461)
(49.35675 163.4163 -3.655924)
(53.53015 163.2539 -3.211945)
(56.59236 163.1759 -2.972089)
(22.76958 162.7928 -1.170579)
(57.70042 163.155 -2.903907)
(36.92339 164.4803 -5.660464)
(40.99324 164.0114 -4.908218)
(43.73976 163.7681 -4.44878)
(45.14954 163.6629 -4.230298)
(35.60486 164.6642 -5.919337)
(33.4632 165.0007 -6.352145)
(24.19888 167.1333 -8.2912)
(26.52348 166.4769 -7.808569)
(29.3371 165.7994 -7.214484)
(29.89302 165.679 -7.097043)
(21.89291 167.8857 -8.751606)
(22.61739 167.6374 -8.609667)
(23.36612 167.3925 -8.460202)
(62.1 107.7301 -0.2913393)
(62.1 107.7366 0.3436289)
(62.1 107.735 0.1848868)
(62.1 107.7333 0.0261449)
(62.1 107.7382 0.5023711)
(62.1 161.9816 6.690488)
(62.1 137.9525 -50.27151)
(62.1 137.9986 -50.86501)
(62.1 111.9113 3.146926)
(62.1 112.3235 3.469869)
(62.1 138.0267 -42.10062)
(62.1 137.8408 -45.27764)
(62.1 137.8625 -48.65652)
(62.1 144.0006 12.49684)
(62.1 145.4719 12.32102)
(62.1 127.6363 11.14177)
(62.1 128.1848 11.28912)
(62.1 130.1745 11.76103)
(62.1 132.0849 12.12387)
(62.1 112.7385 3.787289)
(62.1 113.2065 4.136223)
(62.1 113.5767 4.405556)
(62.1 147.0454 -17.48249)
(62.1 144.337 -21.78709)
(62.1 142.2981 -25.82747)
(62.1 140.4567 -30.52779)
(62.1 139.5276 -33.61851)
(62.1 139.0952 -35.3662)
(62.1 138.5988 -37.81392)
(62.1 138.222 -40.29674)
(62.1 132.5257 12.19531)
(62.1 135.0902 12.52137)
(62.1 136.0367 12.60359)
(62.1 147.7679 11.9476)
(62.1 147.9652 11.90981)
(62.1 150.3178 11.38836)
(62.1 155.7406 9.666998)
(62.1 157.7409 8.836715)
(62.1 160.1324 7.693922)
(62.1 137.6692 12.6977)
(62.1 140.2605 12.72408)
(62.1 142.8621 12.59928)
(62.1 110.2761 0.2837866)
(62.1 110.2777 0.4368632)
(62.1 110.2854 1.202237)
(62.1 110.287 1.355312)
(62.1 110.2839 1.049162)
(62.1 138.1033 -51.97216)
(62.1 138.1649 -52.52631)
(62.1 138.2327 -53.0808)
(62.1 138.3067 -53.63558)
(62.1 152.8313 10.68321)
(62.1 155.3064 9.83276)
(62.1 110.2699 -0.3285121)
(62.1 110.273 -0.02236184)
(62.1 110.2745 0.1307129)
(62.1 110.692 2.144961)
(62.1 114.098 4.775212)
(62.1 115.2847 5.575782)
(62.1 116.2711 6.200114)
(62.1 120.6347 8.555691)
(62.1 122.7387 9.476729)
(62.1 124.3601 10.09964)
(62.1 125.1575 10.37941)
(62.1 110.2792 0.5899369)
(62.1 110.2823 0.8960882)
(62.1 110.2886 1.508386)
(62.1 161.7597 -3.542191)
(62.1 158.3989 -5.826982)
(62.1 157.5683 -6.455236)
(62.1 118.0841 7.256122)
(62.1 120.3805 8.435418)
(62.1 155.0362 -8.546451)
(62.1 153.6948 -9.773023)
(62.1 151.937 -11.52291)
(62.1 110.8934 2.315406)
(62.1 111.0955 2.484471)
(62.1 111.2984 2.652156)
(62.1 150.1756 -13.46203)
(62.1 149.113 -14.73564)
(62.1 138.346 -53.91307)
(62.1 111.502 2.81846)
(62.1 111.7321 3.004071)
(29.27273 168.4911 9.059911)
(28.12537 168.2026 8.919434)
(21.50473 166.373 7.724238)
(62.1 166.7349 8.008144)
(58.70582 165.4627 6.875522)
(62.1 168.1941 8.915156)
(26.55847 167.7951 8.700873)
(23.9669 167.0867 8.259538)
(41.49345 171.0376 9.856772)
(37.3067 170.2748 9.695433)
(35.05096 169.8161 9.567866)
(62.1 169.7871 9.558991)
(32.10478 169.1673 9.346097)
(44.28212 171.4811 9.922451)
(62.1 171.4667 9.920645)
(45.78413 171.6984 9.947261)
(59.71047 172.9909 9.996439)
(54.96258 172.6968 9.999963)
(50.1699 172.2462 9.988576)
(49.35675 164.904 6.232786)
(53.53015 165.2073 6.595403)
(56.59236 165.3761 6.782874)
(22.76958 166.7447 8.015426)
(57.70042 165.4246 6.835114)
(36.92339 163.7001 4.309051)
(40.99324 164.1171 5.091224)
(43.73976 164.3933 5.531657)
(45.14954 164.5299 5.732044)
(35.60486 163.5678 4.020381)
(33.4632 163.3612 3.512552)
(24.19888 162.7483 0.6960936)
(26.52348 162.8381 1.505862)
(29.3371 163.0138 2.389709)
(29.89302 163.0553 2.552624)
(21.89291 162.7258 -0.1856897)
(22.61739 162.7245 0.1003028)
(23.36612 162.7315 0.3871193)
(62.1 139.9748 56.14072)
(62.1 140.2513 56.29666)
(62.1 140.6662 56.53058)
(62.1 140.5279 56.45261)
(62.1 140.3896 56.37463)
(62.1 173.1469 12.64847)
(62.1 145.043 54.23884)
(62.1 145.5288 54.04335)
(62.1 144.7444 13.4971)
(62.1 139.6624 13.69032)
(62.1 116.0708 7.57097)
(62.1 113.1555 5.862749)
(62.1 118.9151 8.998506)
(62.1 169.1849 31.12362)
(62.1 169.7683 29.76156)
(62.1 159.8292 44.61798)
(62.1 160.2311 44.21671)
(62.1 161.6346 42.72946)
(62.1 162.904 41.25648)
(62.1 146.0111 53.84267)
(62.1 146.5473 53.61181)
(62.1 146.9657 53.4259)
(62.1 135.1438 13.43588)
(62.1 130.1525 12.68045)
(62.1 127.0113 11.93973)
(62.1 125.2816 11.44029)
(62.1 122.9136 10.64635)
(62.1 120.575 9.731287)
(62.1 111.8019 4.977242)
(62.1 111.3109 4.640572)
(62.1 110.4045 3.996331)
(62.1 163.1863 40.91043)
(62.1 164.7509 38.85255)
(62.1 165.2954 38.07393)
(62.1 141.8792 54.29858)
(62.1 142.0125 54.37377)
(62.1 141.2125 53.92264)
(62.1 109.9554 3.665924)
(62.1 109.509 3.329994)
(62.1 109.0656 2.98854)
(62.1 170.5929 27.58649)
(62.1 170.6588 27.39672)
(62.1 171.3835 25.09858)
(62.1 172.6042 19.5416)
(62.1 172.8853 17.39409)
(62.1 173.0913 14.75166)
(62.1 166.1931 36.70725)
(62.1 167.5117 34.47627)
(62.1 168.7044 32.16081)
(62.1 142.5459 54.67453)
(62.1 142.6793 54.74971)
(62.1 172.0296 22.56923)
(62.1 172.5307 20.00047)
(62.1 141.4791 54.07302)
(62.1 141.6125 54.14821)
(62.1 141.7458 54.22339)
(62.1 142.2792 54.52415)
(62.1 142.4126 54.59934)
(62.1 147.5465 53.15921)
(62.1 148.8331 52.53185)
(62.1 149.867 51.98976)
(62.1 154.0888 49.38852)
(62.1 155.9384 48.02697)
(62.1 157.2886 46.93421)
(62.1 157.9296 46.38351)
(62.1 143.5656 54.79378)
(62.1 164.1742 7.724333)
(62.1 160.5151 9.492468)
(62.1 159.5557 9.897679)
(62.1 151.688 50.94765)
(62.1 153.8576 49.54853)
(62.1 142.8126 54.8249)
(62.1 156.4787 11.0449)
(62.1 154.7458 11.59326)
(62.1 152.3514 12.24063)
(62.1 149.7914 12.79649)
(62.1 148.1571 13.07991)
(62.1 108.8449 2.815742)
(62.1 143.8139 54.7046)
(62.1 144.0614 54.61409)
(62.1 144.308 54.52226)
(62.1 144.5539 54.4291)
(62.1 144.8297 54.32263)
(29.27273 178.4537 8.195814)
(28.12537 178.1878 8.375426)
(21.50473 176.2379 9.362311)
(62.1 176.6647 9.190807)
(58.70582 175.0477 9.726274)
(62.1 178.1798 8.380586)
(26.55847 177.7947 8.619056)
(23.9669 177.0583 9.011882)
(41.49345 180.417 6.388881)
(37.3067 179.8959 6.968786)
(35.05096 179.5561 7.302258)
(62.1 179.5339 7.32297)
(32.10478 179.0396 7.753284)
(44.28212 180.6956 6.037671)
(62.1 180.6869 6.049178)
(45.78413 180.8258 5.861885)
(59.71047 181.5146 4.767141)
(54.96258 181.3707 5.023552)
(50.1699 181.1355 5.408115)
(49.35675 174.2118 9.88871)
(53.53015 174.6775 9.807348)
(56.59236 174.9242 9.754963)
(22.76958 176.6759 9.186005)
(57.70042 174.9937 9.739021)
(36.92339 171.9438 9.969515)
(40.99324 172.8297 9.999442)
(43.73976 173.3492 9.980437)
(45.14954 173.5911 9.962342)
(35.60486 171.6277 9.939718)
(33.4632 171.0846 9.864696)
(24.19888 168.339 8.987294)
(26.52348 169.0852 9.314432)
(29.3371 169.9385 9.604193)
(29.89302 170.1003 9.649668)
(21.89291 167.5641 8.565916)
(22.61739 167.8112 8.70997)
(23.36612 168.063 8.847322)
(62.1 204.9687 56.43205)
(62.1 205.652 56.02821)
(62.1 205.5154 56.10898)
(62.1 205.3787 56.18974)
(62.1 205.242 56.27051)
(62.1 158.9104 46.80649)
(62.1 157.0388 48.46027)
(62.1 183.8894 5.957987)
(62.1 170.4231 30.97959)
(62.1 168.0494 35.47741)
(62.1 205.8557 51.09191)
(62.1 205.9293 50.57348)
(62.1 165.5698 39.26335)
(62.1 162.4199 43.20824)
(62.1 205.9967 50.05538)
(62.1 206.0649 49.47559)
(62.1 206.113 49.02035)
(62.1 205.2481 53.31652)
(62.1 160.2078 45.55824)
(62.1 150.9541 52.84861)
(62.1 148.017 54.51926)
(62.1 153.6125 51.09913)
(62.1 155.0771 50.02803)
(62.1 146.5734 55.24875)
(62.1 146.0363 55.50559)
(62.1 145.0252 55.96849)
(62.1 197.9083 18.62678)
(62.1 197.0204 17.44055)
(62.1 204.9169 33.47621)
(62.1 204.7703 32.92759)
(62.1 204.1841 30.96843)
(62.1 203.5432 29.13261)
(62.1 204.7209 53.62806)
(62.1 204.8527 53.55017)
(62.1 204.9845 53.47229)
(62.1 144.5145 56.19223)
(62.1 144.0004 56.41079)
(62.1 143.483 56.62412)
(62.1 203.3847 28.71512)
(62.1 202.3848 26.33118)
(62.1 201.9827 25.47034)
(62.1 203.6666 54.25115)
(62.1 203.9302 54.09538)
(62.1 204.062 54.01749)
(62.1 204.1938 53.93961)
(62.1 204.3256 53.86172)
(62.1 204.4574 53.78383)
(62.1 205.5491 52.90848)
(62.1 205.5976 52.64881)
(62.1 205.1163 53.3944)
(62.1 195.5491 15.63889)
(62.1 195.4177 15.48692)
(62.1 193.7898 13.71022)
(62.1 189.5876 9.874598)
(62.1 187.8684 8.557378)
(62.1 185.683 7.057734)
(62.1 201.248 24.00955)
(62.1 199.9752 21.75219)
(62.1 198.5663 19.56153)
(62.1 175.1386 11.26652)
(62.1 174.8403 15.31945)
(62.1 174.7115 16.35292)
(62.1 191.9223 11.88602)
(62.1 189.9483 10.16771)
(62.1 206.1725 48.38399)
(62.1 206.2725 46.95607)
(62.1 206.32 45.78965)
(62.1 206.1781 40.83283)
(62.1 205.9238 38.55024)
(62.1 205.6525 36.83457)
(62.1 205.4961 36.0041)
(62.1 205.6446 52.38919)
(62.1 205.6899 52.12962)
(62.1 205.7337 51.8701)
(62.1 174.1665 19.59135)
(62.1 173.775 21.36628)
(62.1 173.1384 23.76353)
(62.1 206.328 43.69153)
(62.1 206.2011 41.11312)
(62.1 172.3398 26.25852)
(62.1 171.7681 27.81556)
(62.1 205.7759 51.61064)
(62.1 205.8216 51.31855)
(62.1 143.223 56.72881)
(29.27273 182.6866 -0.8640968)
(28.12537 182.7092 -0.5440079)
(21.50473 182.589 1.638074)
(62.1 182.6539 1.182663)
(58.70582 182.3091 2.850752)
(62.1 182.7097 -0.5345697)
(26.55847 182.7237 -0.08181717)
(23.9669 182.6957 0.7523441)
(41.49345 182.1035 -3.46789)
(37.3067 182.3451 -2.726648)
(35.05096 182.464 -2.265608)
(62.1 182.4708 -2.236022)
(32.10478 182.5964 -1.592813)
(44.28212 181.9386 -3.884779)
(62.1 181.9442 -3.871467)
(45.78413 181.8515 -4.085376)
(59.71047 181.2478 -5.229299)
(54.96258 181.3979 -4.976411)
(50.1699 181.6133 -4.580461)
(49.35675 182.0318 3.655924)
(53.53015 182.1942 3.211945)
(56.59236 182.2722 2.972089)
(22.76958 182.6553 1.170579)
(57.70042 182.2931 2.903907)
(36.92339 180.9678 5.660464)
(40.99324 181.4366 4.908218)
(43.73976 181.68 4.44878)
(45.14954 181.7852 4.230298)
(35.60486 180.7839 5.919337)
(33.4632 180.4474 6.352145)
(24.19888 178.3147 8.2912)
(26.52348 178.9711 7.808569)
(29.3371 179.6487 7.214484)
(29.89302 179.769 7.097043)
(21.89291 177.5624 8.751606)
(22.61739 177.8107 8.609667)
(23.36612 178.0555 8.460202)
(62.1 237.7131 -0.1848868)
(62.1 237.7147 -0.0261449)
(62.1 237.718 0.2913393)
(62.1 237.7099 -0.5023711)
(62.1 237.7115 -0.3436289)
(62.1 207.6073 45.27764)
(62.1 207.5856 48.65652)
(62.1 183.4665 -6.690488)
(62.1 198.4027 17.48249)
(62.1 201.111 21.78709)
(62.1 233.5368 -3.146926)
(62.1 233.1246 -3.469869)
(62.1 235.172 -0.2837866)
(62.1 235.1704 -0.4368632)
(62.1 203.15 25.82747)
(62.1 204.9914 30.52779)
(62.1 207.4955 50.27151)
(62.1 207.4494 50.86501)
(62.1 207.3447 51.97216)
(62.1 232.7096 -3.787289)
(62.1 232.2416 -4.136223)
(62.1 231.8714 -4.405556)
(62.1 205.9205 33.61851)
(62.1 206.3528 35.3662)
(62.1 206.8493 37.81392)
(62.1 207.2261 40.29674)
(62.1 207.4214 42.10062)
(62.1 201.4474 -12.49684)
(62.1 199.9762 -12.32102)
(62.1 217.8117 -11.14177)
(62.1 217.2633 -11.28912)
(62.1 215.2735 -11.76103)
(62.1 213.3632 -12.12387)
(62.1 235.1642 -1.049162)
(62.1 235.1626 -1.202237)
(62.1 235.1611 -1.355312)
(62.1 207.2832 52.52631)
(62.1 207.2154 53.0808)
(62.1 207.1414 53.63558)
(62.1 212.9224 -12.19531)
(62.1 210.3579 -12.52137)
(62.1 209.4113 -12.60359)
(62.1 235.1689 -0.5899369)
(62.1 235.1657 -0.8960882)
(62.1 234.9567 -1.973135)
(62.1 234.756 -2.144961)
(62.1 235.1595 -1.508386)
(62.1 197.6802 -11.9476)
(62.1 197.4829 -11.90981)
(62.1 195.1303 -11.38836)
(62.1 189.7075 -9.666998)
(62.1 187.7071 -8.836715)
(62.1 185.3157 -7.693922)
(62.1 207.7789 -12.6977)