/*--------------------------------*- C++ -*----------------------------------*\
| =========                 |                                                 |
| \\      /  F ield         | OpenFOAM: The Open Source CFD Toolbox           |
|  \\    /   O peration     | Version:  v2006                                 |
|   \\  /    A nd           | Website:  www.openfoam.com                      |
|    \\/     M anipulation  |                                                 |
\*---------------------------------------------------------------------------*/
FoamFile
{
    version     2.0;
    format      ascii;
    class       extendedFeatureEdgeMesh;
    location    "constant/extendedFeatureEdgeMesh";
    object      rotatingAMI.extendedFeatureEdgeMesh;
}
// * * * * * * * * * * * * * * * * * * * * * * * * * * * * * * * * * * * * * //

// points

120
(
(62.1 240.7053 -14.44986)
(62.1 241.8433 -7.264728)
(62.1 242.224 -2.255141e-14)
(62.1 241.8433 7.264728)
(62.1 232.9128 -34.75)
(62.1 236.2154 -28.2682)
(62.1 238.8225 -21.47668)
(62.1 219.2286 -51.64856)
(62.1 224.3726 -46.50458)
(62.1 228.9507 -40.85108)
(62.1 200.9922 -63.49141)
(62.1 207.474 -60.18877)
(62.1 213.5751 -56.22668)
(62.1 179.9888 -69.11927)
(62.1 187.1739 -67.98126)
(62.1 194.2007 -66.09843)
(62.1 158.2742 -67.98126)
(62.1 165.4593 -69.11927)
(62.1 172.724 -69.5)
(62.1 137.974 -60.18877)
(62.1 144.4558 -63.49141)
(62.1 151.2474 -66.09843)
(62.1 121.0755 -46.50458)
(62.1 126.2195 -51.64856)
(62.1 131.873 -56.22668)
(62.1 109.2326 -28.2682)
(62.1 112.5353 -34.75)
(62.1 116.4974 -40.85108)
(62.1 103.6048 -7.264728)
(62.1 104.7428 -14.44986)
(62.1 106.6256 -21.47668)
(62.1 104.7428 14.44986)
(62.1 103.6048 7.264728)
(62.1 103.224 0)
(62.1 112.5353 34.75)
(62.1 109.2326 28.2682)
(62.1 106.6256 21.47668)
(62.1 126.2195 51.64856)
(62.1 121.0755 46.50458)
(62.1 116.4974 40.85108)
(62.1 144.4558 63.49141)
(62.1 137.974 60.18877)
(62.1 131.873 56.22668)
(62.1 165.4593 69.11927)
(62.1 158.2742 67.98126)
(62.1 151.2474 66.09843)
(62.1 187.1739 67.98126)
(62.1 179.9888 69.11927)
(62.1 172.724 69.5)
(62.1 207.474 60.18877)
(62.1 200.9922 63.49141)
(62.1 194.2007 66.09843)
(62.1 224.3726 46.50458)
(62.1 219.2286 51.64856)
(62.1 213.5751 56.22668)
(62.1 236.2154 28.2682)
(62.1 232.9128 34.75)
(62.1 228.9507 40.85108)
(62.1 240.7053 14.44986)
(62.1 238.8225 21.47668)
(12.1 163.2761 -0.9930204)
(12.1 163.4316 -1.975161)
(12.1 163.689 -2.935661)
(12.1 164.0454 -3.863998)
(12.1 164.4968 -4.75)
(12.1 165.0384 -5.58396)
(12.1 165.6642 -6.356741)
(12.1 166.3673 -7.059876)
(12.1 167.1401 -7.685661)
(12.1 167.974 -8.227241)
(12.1 168.86 -8.678682)
(12.1 169.7884 -9.035037)
(12.1 170.7489 -9.292402)
(12.1 171.731 -9.447958)
(12.1 172.724 -9.5)
(12.1 173.7171 -9.447958)
(12.1 174.6992 -9.292402)
(12.1 175.6597 -9.035037)
(12.1 176.588 -8.678682)
(12.1 177.474 -8.227241)
(12.1 178.308 -7.685661)
(12.1 179.0808 -7.059876)
(12.1 179.7839 -6.356741)
(12.1 180.4097 -5.58396)
(12.1 180.9513 -4.75)
(12.1 181.4027 -3.863998)
(12.1 181.7591 -2.935661)
(12.1 182.0164 -1.975161)
(12.1 182.172 -0.9930204)
(12.1 182.224 -1.734723e-15)
(12.1 182.172 0.9930204)
(12.1 182.0164 1.975161)
(12.1 181.7591 2.935661)
(12.1 181.4027 3.863998)
(12.1 180.9513 4.75)
(12.1 180.4097 5.58396)
(12.1 179.7839 6.356741)
(12.1 179.0808 7.059876)
(12.1 178.308 7.685661)
(12.1 177.474 8.227241)
(12.1 176.588 8.678682)
(12.1 175.6597 9.035037)
(12.1 174.6992 9.292402)
(12.1 173.7171 9.447958)
(12.1 172.724 9.5)
(12.1 171.731 9.447958)
(12.1 170.7489 9.292402)
(12.1 169.7884 9.035037)
(12.1 168.86 8.678682)
(12.1 167.974 8.227241)
(12.1 167.1401 7.685661)
(12.1 166.3673 7.059876)
(12.1 165.6642 6.356741)
(12.1 165.0384 5.58396)
(12.1 164.4968 4.75)
(12.1 164.0454 3.863998)
(12.1 163.689 2.935661)
(12.1 163.4316 1.975161)
(12.1 163.2761 0.9930204)
(12.1 163.224 0)
)

// edges

120
(
(0 1)
(1 2)
(2 3)
(4 5)
(5 6)
(6 0)
(7 8)
(8 9)
(9 4)
(10 11)
(11 12)
(12 7)
(13 14)
(14 15)
(15 10)
(16 17)
(17 18)
(18 13)
(19 20)
(20 21)
(21 16)
(22 23)
(23 24)
(24 19)
(25 26)
(26 27)
(27 22)
(28 29)
(29 30)
(30 25)
(31 32)
(32 33)
(33 28)
(34 35)
(35 36)
(36 31)
(37 38)
(38 39)
(39 34)
(40 41)
(41 42)
(42 37)
(43 44)
(44 45)
(45 40)
(46 47)
(47 48)
(48 43)
(49 50)
(50 51)
(51 46)
(52 53)
(53 54)
(54 49)
(55 56)
(56 57)
(57 52)
(3 58)
(58 59)
(59 55)
(60 61)
(61 62)
(62 63)
(63 64)
(64 65)
(65 66)
(66 67)
(67 68)
(68 69)
(69 70)
(70 71)
(71 72)
(72 73)
(73 74)
(74 75)
(75 76)
(76 77)
(77 78)
(78 79)
(79 80)
(80 81)
(81 82)
(82 83)
(83 84)
(84 85)
(85 86)
(86 87)
(87 88)
(88 89)
(89 90)
(90 91)
(91 92)
(92 93)
(93 94)
(94 95)
(95 96)
(96 97)
(97 98)
(98 99)
(99 100)
(100 101)
(101 102)
(102 103)
(103 104)
(104 105)
(105 106)
(106 107)
(107 108)
(108 109)
(109 110)
(110 111)
(111 112)
(112 113)
(113 114)
(114 115)
(115 116)
(116 117)
(117 118)
(118 119)
(119 60)
)

// concaveStart mixedStart nonFeatureStart
0 0 0
// internalStart flatStart openStart multipleStart
120 120 120 120
// normals

240
(
(1 0 -0)
(-0.7677893 0.6328145 -0.1002269)
(1 0 0)
(-0.7677894 0.6398244 -0.03352854)
(1 -0 0)
(-0.7677892 0.6398247 0.03352855)
(1 0 -0)
(-0.7677892 0.5708717 -0.2908697)
(1 0 0)
(-0.7677892 0.598145 -0.2296135)
(1 0 0)
(-0.7677896 0.6188711 -0.1658244)
(1 0 -0)
(-0.7677893 0.4530442 -0.4530459)
(1 0 0)
(-0.7677893 0.4979202 -0.4032061)
(1 0 0)
(-0.7677892 0.5373381 -0.3489521)
(1 0 -0)
(-0.7677893 0.2908727 -0.5708701)
(1 0 0)
(-0.7677892 0.3489507 -0.5373389)
(1 0 0)
(-0.7677892 0.4032074 -0.4979192)
(1 0 -0)
(-0.7677893 0.1002279 -0.6328143)
(1 0 0)
(-0.7677893 0.1658269 -0.6188708)
(1 0 0)
(-0.7677893 0.2296075 -0.5981471)
(1 -0 0)
(-0.7677893 -0.1002279 -0.6328144)
(1 0 0)
(-0.7677893 -0.03353205 -0.6398244)
(1 0 0)
(-0.7677893 0.03353156 -0.6398244)
(1 -0 0)
(-0.7677893 -0.2908727 -0.5708701)
(1 0 0)
(-0.7677893 -0.2296043 -0.5981483)
(1 0 0)
(-0.7677893 -0.1658269 -0.6188708)
(1 -0 0)
(-0.7677891 -0.4530443 -0.453046)
(1 0 0)
(-0.7677892 -0.4032074 -0.4979192)
(1 0 0)
(-0.7677892 -0.348955 -0.5373361)
(1 -0 0)
(-0.7677893 -0.5708679 -0.2908771)
(1 0 0)
(-0.7677893 -0.537338 -0.3489521)
(1 0 0)
(-0.7677893 -0.4979198 -0.4032065)
(1 -0 0)
(-0.7677889 -0.6328149 -0.1002269)
(1 0 0)
(-0.7677892 -0.6188717 -0.1658239)
(1 0 0)
(-0.7677896 -0.5981477 -0.2296051)
(1 0 0)
(-0.7677892 -0.6328146 0.1002269)
(1 0 0)
(-0.7677891 -0.6398242 0.03353794)
(1 0 0)
(-0.7677893 -0.639824 -0.03353793)
(1 0 0)
(-0.7677895 -0.5708676 0.290877)
(1 0 0)
(-0.7677893 -0.5981479 0.2296052)
(1 0 0)
(-0.767789 -0.6188719 0.1658239)
(1 0 0)
(-0.7677893 -0.4530442 0.4530459)
(1 0 0)
(-0.7677893 -0.4979198 0.4032065)
(1 0 0)
(-0.7677891 -0.5373381 0.3489522)
(1 0 0)
(-0.7677893 -0.2908727 0.5708701)
(1 0 0)
(-0.7677894 -0.3489549 0.537336)
(1 0 0)
(-0.7677891 -0.4032075 0.4979193)
(1 0 0)
(-0.7677893 -0.1002279 0.6328143)
(1 0 0)
(-0.7677893 -0.1658269 0.6188708)
(1 0 0)
(-0.7677892 -0.2296044 0.5981484)
(1 0 0)
(-0.7677893 0.1002279 0.6328144)
(1 0 0)
(-0.7677893 0.03353156 0.6398244)
(1 0 -0)
(-0.7677893 -0.03353205 0.6398244)
(1 0 0)
(-0.7677893 0.2908727 0.5708701)
(1 0 0)
(-0.7677892 0.2296075 0.5981472)
(1 0 0)
(-0.7677893 0.1658269 0.6188708)
(1 0 0)
(-0.7677892 0.4530443 0.4530459)
(1 0 0)
(-0.7677892 0.4032074 0.4979192)
(1 0 0)
(-0.7677893 0.3489506 0.5373388)
(1 0 0)
(-0.7677891 0.5708719 0.2908698)
(1 0 0)
(-0.7677892 0.537338 0.3489521)
(1 0 0)
(-0.7677893 0.4979201 0.4032061)
(1 0 0)
(-0.7677895 0.6328142 0.1002268)
(1 0 0)
(-0.7677893 0.6188714 0.1658245)
(1 0 0)
(-0.7677893 0.5981448 0.2296135)
(-0.7677901 -0.6328187 -0.1001942)
(-1 0 0)
(-0.7677884 -0.6188664 -0.1658475)
(-1 0 0)
(-0.7677886 -0.5981384 -0.2296324)
(-1 0 0)
(-0.7677902 -0.5708794 -0.2908519)
(-1 0 0)
(-0.7677887 -0.5373298 -0.3489658)
(-1 0 0)
(-0.7677892 -0.497917 -0.4032103)
(-1 0 0)
(-0.7677898 -0.4530577 -0.4530315)
(-1 0 0)
(-0.7677888 -0.4031974 -0.4979279)
(-1 0 0)
(-0.7677899 -0.3489708 -0.5373249)
(-1 0 0)
(-0.7677893 -0.2908735 -0.5708696)
(-1 0 0)
(-0.7677889 -0.2295923 -0.5981535)
(-1 0 0)
(-0.7677893 -0.1658268 -0.6188708)
(-1 0 0)
(-0.7677894 -0.1002318 -0.6328136)
(-1 0 0)
(-0.7677893 -0.0335326 -0.6398243)
(-1 0 -0)
(-0.7677894 0.033529 -0.6398244)
(-1 0 0)
(-0.7677892 0.1002318 -0.6328139)
(-1 -0 0)
(-0.7677893 0.1658268 -0.6188708)
(-1 0 0)
(-0.767789 0.2296153 -0.5981445)
(-1 0 0)
(-0.7677893 0.2908735 -0.5708697)
(-1 -0 0)
(-0.7677897 0.3489395 -0.5373455)
(-1 0 0)
(-0.7677894 0.4032017 -0.4979234)
(-1 0 0)
(-0.7677889 0.4530535 -0.4530372)
(-1 -0 0)
(-0.7677894 0.4979167 -0.40321)
(-1 0 0)
(-0.7677894 0.5373336 -0.3489585)
(-1 0 0)
(-0.7677886 0.5708812 -0.2908528)
(-1 -0 0)
(-0.7677898 0.5981371 -0.2296319)
(-1 0 0)
(-0.7677884 0.6188811 -0.1657924)
(-1 0 0)
(-0.7677902 0.6328095 -0.1002517)
(-1 -0 0)
(-0.7677886 0.6398265 -0.03350609)
(-1 0 0)
(-0.7677899 0.6398249 0.033506)
(-1 0 0)
(-0.7677886 0.6328113 0.100252)
(-1 0 -0)
(-0.7677904 0.6188788 0.1657918)
(-1 0 0)
(-0.7677886 0.5981384 0.2296324)
(-1 0 0)
(-0.7677897 0.5708799 0.2908522)
(-1 0 -0)
(-0.767789 0.537334 0.3489588)
(-1 0 0)
(-0.7677891 0.497917 0.4032103)
(-1 0 0)
(-0.7677896 0.4530529 0.4530366)
(-1 0 -0)
(-0.767789 0.4032021 0.4979238)
(-1 0 0)
(-0.7677889 0.34894 0.5373463)
(-1 0 0)
(-0.7677893 0.2908735 0.5708696)
(-1 0 -0)
(-0.7677895 0.2296151 0.598144)
(-1 0 0)
(-0.7677893 0.1658268 0.6188708)
(-1 0 0)
(-0.7677894 0.1002318 0.6328136)
(-1 0 -0)
(-0.7677892 0.03352901 0.6398246)
(-1 0 0)
(-0.7677893 -0.0335326 0.6398244)
(-1 0 0)
(-0.7677892 -0.1002318 0.6328139)
(-1 0 0)
(-0.7677893 -0.1658268 0.6188708)
(-1 0 0)
(-0.7677897 -0.229592 0.5981526)
(-1 0 0)
(-0.7677893 -0.2908735 0.5708697)
(-1 0 0)
(-0.7677887 -0.3489716 0.5373261)
(-1 0 0)
(-0.7677896 -0.4031968 0.4979272)
(-1 0 0)
(-0.7677886 -0.4530586 0.4530325)
(-1 0 0)
(-0.7677894 -0.4979167 0.40321)
(-1 0 0)
(-0.7677897 -0.5373288 0.3489652)
(-1 0 0)
(-0.7677886 -0.5708812 0.2908528)
(-1 0 0)
(-0.7677903 -0.5981365 0.2296317)
(-1 0 0)
(-0.7677899 -0.6188647 0.165847)
(-1 0 0)
(-0.7677881 -0.6328211 0.1001946)
(-1 0 0)
(-0.76779 -0.6398217 0.03356483)
(-1 0 0)
(-0.7677884 -0.6398237 -0.03356493)
(-1 -0 0)
)

// normal volume types

240
(
0
0
0
0
0
0
0
0
0
0
0
0
0
0
0
0
0
0
0
0
0
0
0
0
0
0
0
0
0
0
0
0
0
0
0
0
0
0
0
0
0
0
0
0
0
0
0
0
0
0
0
0
0
0
0
0
0
0
0
0
0
0
0
0
0
0
0
0
0
0
0
0
0
0
0
0
0
0
0
0
0
0
0
0
0
0
0
0
0
0
0
0
0
0
0
0
0
0
0
0
0
0
0
0
0
0
0
0
0
0
0
0
0
0
0
0
0
0
0
0
0
0
0
0
0
0
0
0
0
0
0
0
0
0
0
0
0
0
0
0
0
0
0
0
0
0
0
0
0
0
0
0
0
0
0
0
0
0
0
0
0
0
0
0
0
0
0
0
0
0
0
0
0
0
0
0
0
0
0
0
0
0
0
0
0
0
0
0
0
0
0
0
0
0
0
0
0
0
0
0
0
0
0
0
0
0
0
0
0
0
0
0
0
0
0
0
0
0
0
0
0
0
0
0
0
0
0
0
0
0
0
0
0
0
0
0
0
0
0
0
)

// normalDirections

120
(
2(1 -1)
2(1 -1)
2(1 -1)
2(1 -1)
2(1 -1)
2(1 -1)
2(1 -1)
2(1 -1)
2(1 -1)
2(1 -1)
2(1 -1)
2(1 -1)
2(1 -1)
2(1 -1)
2(1 -1)
2(1 -1)
2(1 -1)
2(1 -1)
2(1 -1)
2(1 -1)
2(1 -1)
2(1 -1)
2(1 -1)
2(1 -1)
2(1 -1)
2(1 -1)
2(1 -1)
2(1 -1)
2(1 -1)
2(1 -1)
2(1 -1)
2(1 -1)
2(1 -1)
2(1 -1)
2(1 -1)
2(1 -1)
2(1 -1)
2(1 -1)
2(1 -1)
2(1 -1)
2(1 -1)
2(1 -1)
2(1 -1)
2(1 -1)
2(1 -1)
2(1 -1)
2(1 -1)
2(1 -1)
2(1 -1)
2(1 -1)
2(1 -1)
2(1 -1)
2(1 -1)
2(1 -1)
2(1 -1)
2(1 -1)
2(1 -1)
2(1 -1)
2(1 -1)
2(1 -1)
2(1 -1)
2(1 -1)
2(1 -1)
2(1 -1)
2(1 -1)
2(1 -1)
2(1 -1)
2(1 -1)
2(1 -1)
2(1 -1)
2(1 -1)
2(1 -1)
2(1 -1)
2(1 -1)
2(1 -1)
2(1 -1)
2(1 -1)
2(1 -1)
2(1 -1)
2(1 -1)
2(1 -1)
2(1 -1)
2(1 -1)
2(1 -1)
2(1 -1)
2(1 -1)
2(1 -1)
2(1 -1)
2(1 -1)
2(1 -1)
2(1 -1)
2(1 -1)
2(1 -1)
2(1 -1)
2(1 -1)
2(1 -1)
2(1 -1)
2(1 -1)
2(1 -1)
2(1 -1)
2(1 -1)
2(1 -1)
2(1 -1)
2(1 -1)
2(1 -1)
2(1 -1)
2(1 -1)
2(1 -1)
2(1 -1)
2(1 -1)
2(1 -1)
2(1 -1)
2(1 -1)
2(1 -1)
2(1 -1)
2(1 -1)
2(1 -1)
2(1 -1)
2(1 -1)
2(1 -1)
)

// edgeNormals

120
(
2(0 1)
2(2 3)
2(4 5)
2(6 7)
2(8 9)
2(10 11)
2(12 13)
2(14 15)
2(16 17)
2(18 19)
2(20 21)
2(22 23)
2(24 25)
2(26 27)
2(28 29)
2(30 31)
2(32 33)
2(34 35)
2(36 37)
2(38 39)
2(40 41)
2(42 43)
2(44 45)
2(46 47)
2(48 49)
2(50 51)
2(52 53)
2(54 55)
2(56 57)
2(58 59)
2(60 61)
2(62 63)
2(64 65)
2(66 67)
2(68 69)
2(70 71)
2(72 73)
2(74 75)
2(76 77)
2(78 79)
2(80 81)
2(82 83)
2(84 85)
2(86 87)
2(88 89)
2(90 91)
2(92 93)
2(94 95)
2(96 97)
2(98 99)
2(100 101)
2(102 103)
2(104 105)
2(106 107)
2(108 109)
2(110 111)
2(112 113)
2(114 115)
2(116 117)
2(118 119)
2(120 121)
2(122 123)
2(124 125)
2(126 127)
2(128 129)
2(130 131)
2(132 133)
2(134 135)
2(136 137)
2(138 139)
2(140 141)
2(142 143)
2(144 145)
2(146 147)
2(148 149)
2(150 151)
2(152 153)
2(154 155)
2(156 157)
2(158 159)
2(160 161)
2(162 163)
2(164 165)
2(166 167)
2(168 169)
2(170 171)
2(172 173)
2(174 175)
2(176 177)
2(178 179)
2(180 181)
2(182 183)
2(184 185)
2(186 187)
2(188 189)
2(190 191)
2(192 193)
2(194 195)
2(196 197)
2(198 199)
2(200 201)
2(202 203)
2(204 205)
2(206 207)
2(208 209)
2(210 211)
2(212 213)
2(214 215)
2(216 217)
2(218 219)
2(220 221)
2(222 223)
2(224 225)
2(226 227)
2(228 229)
2(230 231)
2(232 233)
2(234 235)
2(236 237)
2(238 239)
)

// featurePointNormals
0()
// featurePointEdges
0()
// regionEdges
0()


// ************************************************************************* //
