/*--------------------------------*- C++ -*----------------------------------*\
| =========                 |                                                 |
| \\      /  F ield         | OpenFOAM: The Open Source CFD Toolbox           |
|  \\    /   O peration     | Version:  v2006                                 |
|   \\  /    A nd           | Website:  www.openfoam.com                      |
|    \\/     M anipulation  |                                                 |
\*---------------------------------------------------------------------------*/
FoamFile
{
    version     2.0;
    format      ascii;
    class       extendedFeatureEdgeMesh;
    location    "constant/extendedFeatureEdgeMesh";
    object      impeller.extendedFeatureEdgeMesh;
}
// * * * * * * * * * * * * * * * * * * * * * * * * * * * * * * * * * * * * * //

// points

3642
(
(62.1 139.949 -53.1682)
(62.1 110.291 1.79993)
(62.1 143.067 54.9681)
(62.1 205.499 53.1682)
(62.1 235.156 -1.79993)
(62.1 202.382 -54.9681)
(14.1 180.698 -4.86075)
(57.8593 172.56 -23.7605)
(58.2448 173.932 -27.7986)
(57.4738 171.529 -19.6022)
(57.0882 170.853 -15.3442)
(45.9715 171.785 -11.2949)
(40.663 172.781 -11.5436)
(47.1236 172.046 -15.5894)
(42.1942 172.991 -15.8092)
(48.2756 172.673 -19.8046)
(43.7254 173.566 -19.9954)
(49.4277 173.654 -23.92)
(45.2566 174.496 -24.082)
(50.5797 174.978 -27.9153)
(46.7879 175.768 -28.0483)
(51.7317 176.631 -31.7699)
(48.3191 177.37 -31.8741)
(52.8838 178.603 -35.4636)
(49.8503 179.291 -35.5389)
(54.0358 180.88 -38.9758)
(51.3815 181.517 -39.0222)
(52.0922 171.333 -15.4342)
(52.862 171.993 -19.6733)
(53.6318 173.008 -23.8127)
(54.4017 174.365 -27.8319)
(58.6303 175.635 -31.6961)
(55.1715 176.053 -31.7105)
(59.0158 177.656 -35.4327)
(55.9413 178.058 -35.4281)
(56.7112 180.369 -38.9642)
(57.5064 193.236 -50.7323)
(27.7573 177.192 -16.8498)
(30.3991 177.508 -20.92)
(33.0408 178.179 -24.8905)
(35.6826 179.192 -28.7408)
(38.3243 180.534 -32.4506)
(40.966 182.195 -35.9993)
(43.6078 184.162 -39.3666)
(30.2227 175.513 -12.2472)
(37.3157 174.165 -16.093)
(32.4996 175.567 -16.4402)
(39.2222 174.672 -20.2455)
(34.7766 175.987 -20.5539)
(41.1287 175.533 -24.2981)
(37.0535 176.761 -24.5679)
(43.0352 176.736 -28.2307)
(39.3305 177.877 -28.4618)
(44.9417 178.269 -32.0226)
(41.6074 179.324 -32.215)
(46.8481 180.12 -35.6536)
(43.8844 181.089 -35.8072)
(48.7546 182.277 -39.1031)
(46.1613 183.159 -39.218)
(14.1 180.921 4.47535)
(57.8593 193.219 -12.0225)
(58.2448 197.403 -12.8527)
(57.4738 189.103 -10.8358)
(57.0882 185.077 -9.29235)
(45.9715 182.036 -6.46046)
(40.663 182.75 -5.72206)
(47.1236 185.886 -8.38204)
(42.1942 186.548 -7.67371)
(48.2756 189.85 -9.94663)
(43.7254 190.462 -9.26836)
(49.4277 193.904 -11.1545)
(45.2566 194.466 -10.5063)
(50.5797 198.026 -12.0059)
(46.7879 198.537 -11.3878)
(51.7317 202.191 -12.5012)
(48.3191 202.651 -11.9132)
(52.8838 206.376 -12.6406)
(49.8503 206.785 -12.0827)
(54.0358 210.556 -12.4245)
(51.3815 210.915 -11.8966)
(52.0922 185.395 -8.92199)
(52.862 189.396 -10.4695)
(53.6318 193.488 -11.6602)
(54.4017 197.648 -12.4946)
(58.6303 201.629 -13.3268)
(55.1715 201.85 -12.9727)
(59.0158 205.876 -13.4451)
(55.9413 206.072 -13.095)
(56.7112 210.29 -12.8618)
(57.5064 226.916 -7.60192)
(27.7573 189.55 -4.55547)
(30.3991 193.233 -6.31672)
(33.0408 197.007 -7.72126)
(35.6826 200.848 -8.76936)
(38.3243 204.732 -9.46132)
(40.966 208.636 -9.7974)
(43.6078 212.535 -9.7779)
(30.2227 184.725 -3.70816)
(37.3157 187.382 -6.79847)
(32.4996 188.383 -5.75831)
(39.2222 191.231 -8.43603)
(34.7766 192.156 -7.45146)
(41.1287 195.171 -9.71687)
(37.0535 196.019 -8.78789)
(43.0352 199.178 -10.6413)
(39.3305 199.949 -9.76789)
(44.9417 203.229 -11.2095)
(41.6074 203.923 -10.3917)
(46.8481 207.299 -11.4219)
(43.8844 207.916 -10.6597)
(48.7546 211.365 -11.2787)
(46.1613 211.905 -10.5721)
(57.8593 193.383 11.738)
(58.2448 196.194 14.9459)
(57.4738 190.297 8.76642)
(57.0882 186.948 6.05182)
(45.9715 182.975 4.8345)
(40.663 182.692 5.82159)
(47.1236 186.564 7.20736)
(42.1942 186.282 8.13548)
(48.2756 189.901 9.85792)
(43.7254 189.62 10.7271)
(49.4277 192.974 12.7655)
(45.2566 192.694 13.5757)
(50.5797 195.773 15.9093)
(46.7879 195.492 16.6605)
(51.7317 198.284 19.2687)
(48.3191 198.005 19.961)
(52.8838 200.497 22.8229)
(49.8503 200.218 23.4562)
(54.0358 202.4 26.5513)
(51.3815 202.122 27.1256)
(52.0922 186.786 6.51225)
(52.862 190.127 9.20385)
(53.6318 193.204 12.1524)
(54.4017 196.007 15.3373)
(58.6303 198.718 18.3693)
(55.1715 198.522 18.7378)
(59.0158 200.944 21.9876)
(55.9413 200.739 22.333)
(56.7112 202.646 26.1025)
(57.5064 206.403 43.1304)
(27.7573 185.082 12.2943)
(30.3991 188.449 14.6033)
(33.0408 191.552 17.1692)
(35.6826 194.381 19.9715)
(38.3243 196.922 22.9893)
(40.966 199.165 26.2019)
(43.6078 201.098 29.5887)
(30.2227 181.936 8.53902)
(37.3157 185.941 9.29457)
(32.4996 185.54 10.6819)
(39.2222 189.283 11.8094)
(34.7766 188.893 13.1025)
(41.1287 192.363 14.5813)
(37.0535 191.982 15.78)
(43.0352 195.167 17.5894)
(39.3305 194.796 18.6939)
(44.9417 197.684 20.8131)
(41.6074 197.323 21.8233)
(46.8481 199.903 24.2316)
(43.8844 199.552 25.1475)
(48.7546 201.812 27.8243)
(46.1613 201.47 28.6459)
(14.1 164.75 4.86075)
(57.8593 172.888 23.7605)
(58.2448 171.516 27.7986)
(57.4738 173.919 19.6022)
(57.0882 174.595 15.3442)
(45.9715 173.663 11.2949)
(40.663 172.667 11.5436)
(47.1236 173.402 15.5894)
(42.1942 172.457 15.8092)
(48.2756 172.775 19.8046)
(43.7254 171.882 19.9954)
(49.4277 171.794 23.92)
(45.2566 170.952 24.082)
(50.5797 170.47 27.9153)
(46.7879 169.68 28.0483)
(51.7317 168.817 31.7699)
(48.3191 168.078 31.8741)
(52.8838 166.845 35.4636)
(49.8503 166.158 35.5389)
(54.0358 164.568 38.9758)
(51.3815 163.932 39.0222)
(52.0922 174.115 15.4342)
(52.862 173.455 19.6733)
(53.6318 172.44 23.8127)
(54.4017 171.083 27.8319)
(58.6303 169.813 31.6961)
(55.1715 169.396 31.7105)
(59.0158 167.792 35.4327)
(55.9413 167.391 35.4281)
(56.7112 165.079 38.9642)
(57.5064 152.212 50.7323)
(27.7573 168.256 16.8498)
(30.3991 167.94 20.92)
(33.0408 167.269 24.8905)
(35.6826 166.257 28.7408)
(38.3243 164.914 32.4506)
(40.966 163.253 35.9993)
(43.6078 161.286 39.3666)
(30.2227 169.935 12.2472)
(37.3157 171.283 16.093)
(32.4996 169.881 16.4402)
(39.2222 170.776 20.2455)
(34.7766 169.461 20.5539)
(41.1287 169.916 24.2981)
(37.0535 168.687 24.5679)
(43.0352 168.712 28.2307)
(39.3305 167.571 28.4618)
(44.9417 167.179 32.0226)
(41.6074 166.124 32.215)
(46.8481 165.328 35.6536)
(43.8844 164.359 35.8072)
(48.7546 163.171 39.1031)
(46.1613 162.289 39.218)
(14.1 164.527 -4.47535)
(57.8593 152.229 12.0225)
(58.2448 148.046 12.8527)
(57.4738 156.345 10.8358)
(57.0882 160.371 9.29235)
(45.9715 163.412 6.46046)
(40.663 162.698 5.72206)
(47.1236 159.562 8.38204)
(42.1942 158.9 7.67371)
(48.2756 155.598 9.94663)
(43.7254 154.986 9.26836)
(49.4277 151.544 11.1545)
(45.2566 150.982 10.5063)
(50.5797 147.422 12.0059)
(46.7879 146.911 11.3878)
(51.7317 143.257 12.5012)
(48.3191 142.797 11.9132)
(52.8838 139.072 12.6406)
(49.8503 138.663 12.0827)
(54.0358 134.892 12.4245)
(51.3815 134.534 11.8966)
(52.0922 160.053 8.92199)
(52.862 156.052 10.4695)
(53.6318 151.96 11.6602)
(54.4017 147.8 12.4946)
(58.6303 143.819 13.3268)
(55.1715 143.598 12.9727)
(59.0158 139.572 13.4451)
(55.9413 139.376 13.095)
(56.7112 135.158 12.8618)
(57.5064 118.532 7.60192)
(27.7573 155.898 4.55547)
(30.3991 152.215 6.31672)
(33.0408 148.441 7.72126)
(35.6826 144.6 8.76936)
(38.3243 140.716 9.46132)
(40.966 136.812 9.7974)
(43.6078 132.913 9.7779)
(30.2227 160.723 3.70816)
(37.3157 158.066 6.79847)
(32.4996 157.065 5.75831)
(39.2222 154.217 8.43603)
(34.7766 153.292 7.45146)
(41.1287 150.277 9.71687)
(37.0535 149.429 8.78789)
(43.0352 146.27 10.6413)
(39.3305 145.499 9.76789)
(44.9417 142.219 11.2095)
(41.6074 141.525 10.3917)
(46.8481 138.149 11.4219)
(43.8844 137.532 10.6597)
(48.7546 134.083 11.2787)
(46.1613 133.543 10.5721)
(57.8593 152.065 -11.738)
(58.2448 149.254 -14.9459)
(57.4738 155.151 -8.76642)
(57.0882 158.5 -6.05182)
(45.9715 162.473 -4.8345)
(40.663 162.756 -5.82159)
(47.1236 158.884 -7.20736)
(42.1942 159.166 -8.13548)
(48.2756 155.547 -9.85792)
(43.7254 155.829 -10.7271)
(49.4277 152.474 -12.7655)
(45.2566 152.755 -13.5757)
(50.5797 149.676 -15.9093)
(46.7879 149.956 -16.6605)
(51.7317 147.164 -19.2687)
(48.3191 147.443 -19.961)
(52.8838 144.951 -22.8229)
(49.8503 145.23 -23.4562)
(54.0358 143.048 -26.5513)
(51.3815 143.326 -27.1256)
(52.0922 158.662 -6.51225)
(52.862 155.321 -9.20385)
(53.6318 152.244 -12.1524)
(54.4017 149.442 -15.3373)
(58.6303 146.73 -18.3693)
(55.1715 146.926 -18.7378)
(59.0158 144.505 -21.9876)
(55.9413 144.709 -22.333)
(56.7112 142.802 -26.1025)
(57.5064 139.045 -43.1304)
(27.7573 160.366 -12.2943)
(30.3991 156.999 -14.6033)
(33.0408 153.896 -17.1692)
(35.6826 151.068 -19.9715)
(38.3243 148.526 -22.9893)
(40.966 146.283 -26.2019)
(43.6078 144.35 -29.5887)
(30.2227 163.512 -8.53902)
(37.3157 159.508 -9.29457)
(32.4996 159.908 -10.6819)
(39.2222 156.165 -11.8094)
(34.7766 156.555 -13.1025)
(41.1287 153.085 -14.5813)
(37.0535 153.466 -15.78)
(43.0352 150.281 -17.5894)
(39.3305 150.652 -18.6939)
(44.9417 147.764 -20.8131)
(41.6074 148.125 -21.8233)
(46.8481 145.545 -24.2316)
(43.8844 145.896 -25.1475)
(48.7546 143.636 -27.8243)
(46.1613 143.978 -28.6459)
(62.1 163.891 -4.68715)
(62.1 164.248 5.30646)
(62.1 173.082 9.9936)
(62.1 181.557 4.68715)
(62.1 181.2 -5.30646)
(62.1 172.367 -9.9936)
(46.0212 178.61 -31.2913)
(47.8078 180.288 -34.7558)
(52.096 181.672 -37.9981)
(42.8282 179.415 -31.4173)
(39.6627 180.329 -31.5739)
(44.9695 181.033 -34.8511)
(42.1557 181.875 -34.9736)
(47.1108 182.957 -38.1035)
(46.0212 202.766 -10.5479)
(47.8078 206.605 -10.8272)
(52.096 210.106 -11.2495)
(42.8282 203.278 -9.91416)
(39.6627 203.87 -9.20089)
(44.9695 207.06 -10.2298)
(42.1557 207.587 -9.56178)
(47.1108 210.839 -10.1899)
(46.0212 196.88 20.7433)
(47.8078 199.041 23.9286)
(52.096 201.157 26.7486)
(42.8282 196.587 21.5032)
(39.6627 196.265 22.373)
(44.9695 198.751 24.6213)
(42.1557 198.436 25.4118)
(47.1108 200.606 27.9136)
(46.0212 166.838 31.2913)
(47.8078 165.16 34.7558)
(52.096 163.776 37.9981)
(42.8282 166.033 31.4173)
(39.6627 165.119 31.5739)
(44.9695 164.415 34.8511)
(42.1557 163.573 34.9736)
(47.1108 162.491 38.1035)
(46.0212 142.682 10.5479)
(47.8078 138.843 10.8272)
(52.096 135.342 11.2495)
(42.8282 142.17 9.91416)
(39.6627 141.578 9.20089)
(44.9695 138.388 10.2298)
(42.1557 137.861 9.56178)
(47.1108 134.609 10.1899)
(46.0212 148.568 -20.7433)
(47.8078 146.407 -23.9286)
(52.096 144.291 -26.7486)
(42.8282 148.861 -21.5032)
(39.6627 149.183 -22.373)
(44.9695 146.697 -24.6213)
(42.1557 147.012 -25.4118)
(47.1108 144.842 -27.9136)
(62.1 140.479 -56.432)
(62.1 140.753 -56.5936)
(62.1 139.653 -55.9581)
(62.1 139.796 -56.0282)
(62.1 139.933 -56.109)
(62.1 138.839 -55.4628)
(62.1 138.703 -55.382)
(62.1 138.566 -55.3013)
(62.1 140.069 -56.1897)
(62.1 140.206 -56.2705)
(62.1 138.976 -55.5436)
(62.1 139.113 -55.6244)
(62.1 139.249 -55.7051)
(62.1 139.386 -55.7859)
(62.1 139.659 -55.9474)
(62.1 203.273 -57.1343)
(62.1 203.537 -57.2323)
(62.1 202.364 -57.8488)
(62.1 161.559 -5.95799)
(62.1 164.761 -6.04918)
(62.1 167.268 -8.38059)
(62.1 139.592 -51.0919)
(62.1 139.519 -50.5735)
(62.1 175.025 -30.9796)
(62.1 177.399 -35.4774)
(62.1 142.045 -54.4069)
(62.1 179.878 -39.2634)
(62.1 183.028 -43.2082)
(62.1 175.811 -64.9267)
(62.1 168.892 -64.887)
(62.1 186.538 -46.8065)
(62.1 139.451 -50.0554)
(62.1 139.383 -49.4756)
(62.1 139.335 -49.0204)
(62.1 140.068 -53.2386)
(62.1 139.946 -53.153)
(62.1 141.781 -54.2511)
(62.1 168.783 -9.19081)
(62.1 170.282 -9.69713)
(62.1 162.017 -64.1121)
(62.1 185.24 -45.5582)
(62.1 155.263 -62.6108)
(62.1 148.707 -60.4001)
(62.1 142.423 -57.505)
(62.1 188.409 -48.4603)
(62.1 190.371 -50.028)
(62.1 182.695 -64.2307)
(62.1 191.836 -51.0991)
(62.1 189.466 -62.807)
(62.1 194.494 -52.8486)
(62.1 196.047 -60.6716)
(62.1 197.431 -54.5193)
(62.1 198.875 -55.2487)
(62.1 147.54 -18.6268)
(62.1 148.428 -17.4405)
(62.1 140.531 -33.4762)
(62.1 140.678 -32.9276)
(62.1 165.914 -7.32297)
(62.1 141.264 -30.9684)
(62.1 141.905 -29.1326)
(62.1 140.991 -53.7838)
(62.1 140.727 -53.6281)
(62.1 141.122 -53.8617)
(62.1 140.595 -53.5502)
(62.1 140.464 -53.4723)
(62.1 140.332 -53.3944)
(62.1 199.412 -55.5056)
(62.1 200.423 -55.9685)
(62.1 200.934 -56.1922)
(62.1 142.063 -28.7151)
(62.1 143.063 -26.3312)
(62.1 143.465 -25.4703)
(62.1 141.518 -54.0954)
(62.1 141.386 -54.0175)
(62.1 141.254 -53.9396)
(62.1 139.899 -52.9085)
(62.1 139.85 -52.6488)
(62.1 149.899 -15.6389)
(62.1 150.03 -15.4869)
(62.1 151.658 -13.7102)
(62.1 155.86 -9.8746)
(62.1 157.58 -8.55738)
(62.1 159.765 -7.05773)
(62.1 144.2 -24.0096)
(62.1 145.473 -21.7522)
(62.1 146.882 -19.5615)
(62.1 140.2 -53.3165)
(62.1 170.309 -11.2665)
(62.1 170.608 -15.3195)
(62.1 170.736 -16.3529)
(62.1 153.526 -11.886)
(62.1 155.5 -10.1677)
(62.1 139.276 -48.384)
(62.1 139.176 -46.9561)
(62.1 139.128 -45.7896)
(62.1 139.27 -40.8328)
(62.1 139.524 -38.5502)
(62.1 139.796 -36.8346)
(62.1 139.952 -36.0041)
(62.1 171.282 -19.5914)
(62.1 171.673 -21.3663)
(62.1 172.31 -23.7635)
(62.1 202.486 -56.8322)
(62.1 202.747 -56.9342)
(62.1 203.01 -57.0349)
(62.1 139.12 -43.6915)
(62.1 139.247 -41.1131)
(62.1 139.803 -52.3892)
(62.1 139.758 -52.1296)
(62.1 139.714 -51.8701)
(62.1 173.108 -26.2585)
(62.1 173.68 -27.8156)
(62.1 139.672 -51.6106)
(62.1 139.626 -51.3186)
(62.1 201.448 -56.4108)
(62.1 201.965 -56.6241)
(62.1 202.225 -56.7288)
(29.2727 162.761 0.864097)
(28.1254 162.739 0.544008)
(62.1 162.738 0.53457)
(21.5047 162.859 -1.63807)
(20.1 162.967 -2.19232)
(20.1 163.143 -2.86498)
(58.7058 163.139 -2.85075)
(62.1 163.105 -2.73333)
(62.1 162.794 -1.18266)
(26.5585 162.724 0.0818172)
(23.9669 162.752 -0.752344)
(41.4935 163.345 3.46789)
(37.3067 163.103 2.72665)
(62.1 162.977 2.23602)
(35.051 162.984 2.26561)
(32.1048 162.852 1.59281)
(44.2821 163.51 3.88478)
(62.1 163.504 3.87147)
(45.7841 163.597 4.08538)
(59.7105 164.2 5.2293)
(54.9626 164.05 4.97641)
(50.1699 163.835 4.58046)
(49.3568 163.416 -3.65592)
(53.5302 163.254 -3.21195)
(56.5924 163.176 -2.97209)
(22.7696 162.793 -1.17058)
(57.7004 163.155 -2.90391)
(36.9234 164.48 -5.66046)
(40.9932 164.011 -4.90822)
(20.1 163.775 -4.46273)
(43.7398 163.768 -4.44878)
(45.1495 163.663 -4.2303)
(35.6049 164.664 -5.91934)
(20.1 164.671 -5.92873)
(33.4632 165.001 -6.35215)
(20.1 165.805 -7.21972)
(20.1 167.143 -8.29758)
(24.1989 167.133 -8.2912)
(26.5235 166.477 -7.80857)
(29.3371 165.799 -7.21448)
(29.893 165.679 -7.09704)
(20.1 168.553 -9.08843)
(21.8929 167.886 -8.75161)
(22.6174 167.637 -8.60967)
(23.3661 167.393 -8.4602)
(62.1 107.73 -0.291339)
(62.1 107.727 -0.608822)
(62.1 107.727 0.661238)
(62.1 107.753 1.93105)
(62.1 107.751 1.7723)
(62.1 107.749 1.61356)
(62.1 107.748 1.45482)
(62.1 107.737 0.343629)
(62.1 107.735 0.184887)
(62.1 107.733 0.0261449)
(62.1 107.746 1.29608)
(62.1 107.745 1.13734)
(62.1 107.743 0.978595)
(62.1 107.74 0.661111)
(62.1 107.738 0.502371)
(62.1 161.982 6.69049)
(62.1 130.952 -49.8004)
(62.1 137.952 -50.2715)
(62.1 137.999 -50.865)
(62.1 111.911 3.14693)
(62.1 112.324 3.46987)
(62.1 114.107 -28.0892)
(62.1 111.453 -21.6994)
(62.1 140.457 -30.5278)
(62.1 121.369 -39.8452)
(62.1 138.027 -42.1006)
(62.1 125.895 -45.0782)
(62.1 137.841 -45.2776)
(62.1 137.863 -48.6565)
(62.1 144.001 12.4968)
(62.1 145.472 12.321)
(62.1 127.636 11.1418)
(62.1 128.185 11.2891)
(62.1 130.174 11.761)
(62.1 132.085 12.1239)
(62.1 112.739 3.78729)
(62.1 113.206 4.13622)
(62.1 113.577 4.40556)
(62.1 147.045 -17.4825)
(62.1 144.337 -21.7871)
(62.1 110.267 -0.634661)
(62.1 142.298 -25.8275)
(62.1 109.494 -15.0638)
(62.1 108.251 -8.25749)
(62.1 107.738 -1.35761)
(62.1 139.528 -33.6185)
(62.1 139.095 -35.3662)
(62.1 117.424 -34.1607)
(62.1 138.599 -37.8139)
(62.1 138.222 -40.2967)
(62.1 132.526 12.1953)
(62.1 135.09 12.5214)
(62.1 136.037 12.6036)
(62.1 110.29 1.66146)
(62.1 110.303 1.81005)
(62.1 147.768 11.9476)
(62.1 147.965 11.9098)
(62.1 150.318 11.3884)
(62.1 155.741 9.667)
(62.1 157.741 8.83671)
(62.1 160.132 7.69392)
(62.1 137.669 12.6977)
(62.1 140.26 12.7241)
(62.1 142.862 12.5993)
(62.1 110.276 0.283787)
(62.1 110.278 0.436863)
(62.1 110.287 1.35531)
(62.1 110.285 1.20224)
(62.1 110.284 1.04916)
(62.1 138.103 -51.9722)
(62.1 138.165 -52.5263)
(62.1 136.482 -53.9584)
(62.1 138.233 -53.0808)
(62.1 138.307 -53.6356)
(62.1 152.831 10.6832)
(62.1 155.306 9.83276)
(62.1 110.27 -0.328512)
(62.1 110.273 -0.0223618)
(62.1 110.274 0.130713)
(62.1 110.491 1.97313)
(62.1 110.692 2.14496)
(62.1 138.429 -54.4682)
(62.1 138.473 -54.7459)
(62.1 138.519 -55.0235)
(62.1 114.098 4.77521)
(62.1 115.285 5.57578)
(62.1 116.271 6.20011)
(62.1 120.635 8.55569)
(62.1 122.739 9.47673)
(62.1 124.36 10.0996)
(62.1 125.158 10.3794)
(62.1 110.279 0.589937)
(62.1 110.282 0.896088)
(62.1 110.289 1.50839)
(62.1 161.76 -3.54219)
(62.1 158.399 -5.82698)
(62.1 157.568 -6.45524)
(62.1 118.084 7.25612)
(62.1 120.381 8.43542)
(62.1 155.036 -8.54645)
(62.1 153.695 -9.77302)
(62.1 151.937 -11.5229)
(62.1 110.893 2.31541)
(62.1 111.095 2.48447)
(62.1 111.298 2.65216)
(62.1 150.176 -13.462)
(62.1 149.113 -14.7356)
(62.1 138.346 -53.9131)
(62.1 138.387 -54.1906)
(62.1 111.502 2.81846)
(62.1 111.732 3.00407)
(29.2727 168.491 9.05991)
(28.1254 168.203 8.91943)
(62.1 168.194 8.91516)
(21.5047 166.373 7.72424)
(20.1 165.947 7.35341)
(20.1 165.452 6.86473)
(58.7058 165.463 6.87552)
(62.1 165.547 6.9638)
(62.1 166.735 8.00814)
(26.5585 167.795 8.70087)
(23.9669 167.087 8.25954)
(41.4935 171.038 9.85677)
(37.3067 170.275 9.69543)
(62.1 169.787 9.55899)
(35.051 169.816 9.56787)
(32.1048 169.167 9.3461)
(44.2821 171.481 9.92245)
(62.1 171.467 9.92064)
(45.7841 171.698 9.94726)
(59.7105 172.991 9.99644)
(54.9626 172.697 9.99996)
(50.1699 172.246 9.98858)
(49.3568 164.904 6.23279)
(53.5302 165.207 6.5954)
(56.5924 165.376 6.78287)
(22.7696 166.745 8.01543)
(57.7004 165.425 6.83511)
(36.9234 163.7 4.30905)
(40.9932 164.117 5.09122)
(20.1 164.385 5.51867)
(43.7398 164.393 5.53166)
(45.1495 164.53 5.73204)
(35.6049 163.568 4.02038)
(20.1 163.563 4.0097)
(33.4632 163.361 3.51255)
(20.1 163.012 2.38236)
(20.1 162.747 0.684691)
(24.1989 162.748 0.696094)
(26.5235 162.838 1.50586)
(29.3371 163.014 2.38971)
(29.893 163.055 2.55262)
(20.1 162.768 -0.93169)
(21.8929 162.726 -0.18569)
(22.6174 162.725 0.100303)
(23.3661 162.732 0.387119)
(62.1 139.698 55.9848)
(62.1 140.048 56.1894)
(62.1 139.975 56.1407)
(62.1 140.251 56.2967)
(62.1 141.634 57.0764)
(62.1 141.772 57.1544)
(62.1 141.911 57.2323)
(62.1 141.496 56.9984)
(62.1 141.358 56.9204)
(62.1 141.219 56.8425)
(62.1 141.081 56.7645)
(62.1 140.805 56.6086)
(62.1 140.666 56.5306)
(62.1 140.528 56.4526)
(62.1 140.39 56.3746)
(62.1 134.26 52.3977)
(62.1 140.946 53.7723)
(62.1 173.147 12.6485)
(62.1 145.043 54.2388)
(62.1 145.529 54.0434)
(62.1 144.744 13.4971)
(62.1 139.662 13.6903)
(62.1 119.749 37.6656)
(62.1 124.053 43.0831)
(62.1 130.152 12.6805)
(62.1 128.908 48.0124)
(62.1 113.156 5.86275)
(62.1 108.92 12.4099)
(62.1 116.071 7.57097)
(62.1 110.6 19.1216)
(62.1 118.915 8.99851)
(62.1 112.985 25.6166)
(62.1 169.185 31.1236)
(62.1 169.768 29.7616)
(62.1 159.829 44.618)
(62.1 160.231 44.2167)
(62.1 161.635 42.7295)
(62.1 162.904 41.2565)
(62.1 146.011 53.8427)
(62.1 146.547 53.6118)
(62.1 146.966 53.4259)
(62.1 135.144 13.4359)
(62.1 127.011 11.9397)
(62.1 125.282 11.4403)
(62.1 116.046 31.8214)
(62.1 122.914 10.6463)
(62.1 120.575 9.73129)
(62.1 111.802 4.97724)
(62.1 111.311 4.64057)
(62.1 107.962 5.55765)
(62.1 110.405 3.99633)
(62.1 163.186 40.9104)
(62.1 164.751 38.8526)
(62.1 165.295 38.0739)
(62.1 141.879 54.2986)
(62.1 142.012 54.3738)
(62.1 141.212 53.9226)
(62.1 109.955 3.66592)
(62.1 109.509 3.32999)
(62.1 109.066 2.98854)
(62.1 170.593 27.5865)
(62.1 170.659 27.3967)
(62.1 171.383 25.0986)
(62.1 172.604 19.5416)
(62.1 172.885 17.3941)
(62.1 173.091 14.7517)
(62.1 166.193 36.7072)
(62.1 167.512 34.4763)
(62.1 168.704 32.1608)
(62.1 142.546 54.6745)
(62.1 142.679 54.7497)
(62.1 142.946 54.9001)
(62.1 143.081 54.9631)
(62.1 172.03 22.5692)
(62.1 172.531 20.0005)
(62.1 141.479 54.073)
(62.1 141.613 54.1482)
(62.1 141.746 54.2234)
(62.1 142.279 54.5242)
(62.1 142.413 54.5993)
(62.1 108.406 2.466)
(62.1 108.187 2.28906)
(62.1 107.97 2.11074)
(62.1 147.546 53.1592)
(62.1 148.833 52.5318)
(62.1 149.867 51.9898)
(62.1 154.089 49.3885)
(62.1 155.938 48.027)
(62.1 157.289 46.9342)
(62.1 157.93 46.3835)
(62.1 143.316 54.8816)
(62.1 143.566 54.7938)
(62.1 164.174 7.72433)
(62.1 160.515 9.49247)
(62.1 159.556 9.89768)
(62.1 151.688 50.9477)
(62.1 153.858 49.5485)
(62.1 142.813 54.8249)
(62.1 156.479 11.0449)
(62.1 154.746 11.5933)
(62.1 152.351 12.2406)
(62.1 149.791 12.7965)
(62.1 148.157 13.0799)
(62.1 108.845 2.81574)
(62.1 108.625 2.64156)
(62.1 143.814 54.7046)
(62.1 144.061 54.6141)
(62.1 144.308 54.5223)
(62.1 144.554 54.4291)
(62.1 144.83 54.3226)
(29.2727 178.454 8.19581)
(28.1254 178.188 8.37543)
(62.1 178.18 8.38059)
(21.5047 176.238 9.36231)
(20.1 175.704 9.54573)
(20.1 175.033 9.72971)
(58.7058 175.048 9.72627)
(62.1 175.167 9.69713)
(62.1 176.665 9.19081)
(26.5585 177.795 8.61906)
(23.9669 177.058 9.01188)
(41.4935 180.417 6.38888)
(37.3067 179.896 6.96879)
(62.1 179.534 7.32297)
(35.051 179.556 7.30226)
(32.1048 179.04 7.75328)
(44.2821 180.696 6.03767)
(62.1 180.687 6.04918)
(45.7841 180.826 5.86189)
(59.7105 181.515 4.76714)
(54.9626 181.371 5.02355)
(50.1699 181.135 5.40811)
(49.3568 174.212 9.88871)
(53.5302 174.678 9.80735)
(56.5924 174.924 9.75496)
(22.7696 176.676 9.186)
(57.7004 174.994 9.73902)
(36.9234 171.944 9.96951)
(40.9932 172.83 9.99944)
(20.1 173.334 9.9814)
(43.7398 173.349 9.98044)
(45.1495 173.591 9.96234)
(35.6049 171.628 9.93972)
(20.1 171.616 9.93843)
(33.4632 171.085 9.8647)
(20.1 169.931 9.60208)
(20.1 168.329 8.98228)
(24.1989 168.339 8.98729)
(26.5235 169.085 9.31443)
(29.3371 169.939 9.60419)
(29.893 170.1 9.64967)
(20.1 166.939 8.15674)
(21.8929 167.564 8.56592)
(22.6174 167.811 8.70997)
(23.3661 168.063 8.84732)
(62.1 204.969 56.432)
(62.1 204.695 56.5936)
(62.1 206.043 55.8108)
(62.1 205.652 56.0282)
(62.1 205.515 56.109)
(62.1 206.609 55.4628)
(62.1 206.745 55.382)
(62.1 206.882 55.3013)
(62.1 205.379 56.1897)
(62.1 205.242 56.2705)
(62.1 206.472 55.5436)
(62.1 206.335 55.6244)
(62.1 206.199 55.7051)
(62.1 206.062 55.7859)
(62.1 205.789 55.9474)
(62.1 199.922 59.0362)
(62.1 203.403 54.4069)
(62.1 158.91 46.8065)
(62.1 157.039 48.4603)
(62.1 173.097 64.9989)
(62.1 183.889 5.95799)
(62.1 170.423 30.9796)
(62.1 168.049 35.4774)
(62.1 205.856 51.0919)
(62.1 205.929 50.5735)
(62.1 205.38 53.2386)
(62.1 205.502 53.153)
(62.1 193.493 61.5927)
(62.1 162.42 43.2082)
(62.1 165.57 39.2634)
(62.1 166.186 64.6703)
(62.1 205.997 50.0554)
(62.1 206.065 49.4756)
(62.1 206.113 49.0204)
(62.1 205.248 53.3165)
(62.1 160.208 45.5582)
(62.1 180.004 64.5911)
(62.1 186.828 63.4514)
(62.1 148.017 54.5193)
(62.1 152.663 61.8269)
(62.1 150.954 52.8486)
(62.1 159.349 63.609)
(62.1 153.613 51.0991)
(62.1 155.077 50.028)
(62.1 146.573 55.2487)
(62.1 146.036 55.5056)
(62.1 146.205 59.3443)
(62.1 145.025 55.9685)
(62.1 197.908 18.6268)
(62.1 197.02 17.4405)
(62.1 204.917 33.4762)
(62.1 204.77 32.9276)
(62.1 204.184 30.9684)
(62.1 203.543 29.1326)
(62.1 204.721 53.6281)
(62.1 204.853 53.5502)
(62.1 204.984 53.4723)
(62.1 144.514 56.1922)
(62.1 144 56.4108)
(62.1 143.483 56.6241)
(62.1 203.385 28.7151)
(62.1 202.385 26.3312)
(62.1 201.983 25.4703)
(62.1 203.667 54.2511)
(62.1 203.93 54.0954)
(62.1 204.062 54.0175)
(62.1 204.194 53.9396)
(62.1 204.326 53.8617)
(62.1 204.457 53.7838)
(62.1 205.598 52.6488)
(62.1 205.549 52.9085)
(62.1 205.116 53.3944)
(62.1 195.549 15.6389)
(62.1 195.418 15.4869)
(62.1 193.79 13.7102)
(62.1 189.588 9.8746)
(62.1 187.868 8.55738)
(62.1 185.683 7.05773)
(62.1 201.248 24.0096)
(62.1 199.975 21.7522)
(62.1 198.566 19.5615)
(62.1 175.139 11.2665)
(62.1 174.84 15.3195)
(62.1 174.712 16.3529)
(62.1 142.701 56.9342)
(62.1 142.438 57.0349)
(62.1 142.175 57.1343)
(62.1 191.922 11.886)
(62.1 189.948 10.1677)
(62.1 206.173 48.384)
(62.1 206.273 46.9561)
(62.1 206.32 45.7896)
(62.1 206.178 40.8328)
(62.1 205.924 38.5502)
(62.1 205.652 36.8346)
(62.1 205.496 36.0041)
(62.1 205.645 52.3892)
(62.1 205.69 52.1296)
(62.1 205.734 51.8701)
(62.1 174.167 19.5914)
(62.1 173.775 21.3663)
(62.1 173.138 23.7635)
(62.1 206.328 43.6915)
(62.1 206.201 41.1131)
(62.1 172.34 26.2585)
(62.1 171.768 27.8156)
(62.1 205.776 51.6106)
(62.1 205.822 51.3186)
(62.1 143.223 56.7288)
(62.1 142.962 56.8322)
(29.2727 182.687 -0.864097)
(28.1254 182.709 -0.544008)
(62.1 182.71 -0.53457)
(21.5047 182.589 1.63807)
(20.1 182.481 2.19232)
(20.1 182.305 2.86498)
(58.7058 182.309 2.85075)
(62.1 182.343 2.73333)
(62.1 182.654 1.18266)
(26.5585 182.724 -0.0818172)
(23.9669 182.696 0.752344)
(41.4935 182.104 -3.46789)
(37.3067 182.345 -2.72665)
(62.1 182.471 -2.23602)
(35.051 182.464 -2.26561)
(32.1048 182.596 -1.59281)
(44.2821 181.939 -3.88478)
(62.1 181.944 -3.87147)
(45.7841 181.852 -4.08538)
(59.7105 181.248 -5.2293)
(54.9626 181.398 -4.97641)
(50.1699 181.613 -4.58046)
(49.3568 182.032 3.65592)
(53.5302 182.194 3.21195)
(56.5924 182.272 2.97209)
(22.7696 182.655 1.17058)
(57.7004 182.293 2.90391)
(36.9234 180.968 5.66046)
(40.9932 181.437 4.90822)
(20.1 181.673 4.46273)
(43.7398 181.68 4.44878)
(45.1495 181.785 4.2303)
(35.6049 180.784 5.91934)
(20.1 180.777 5.92873)
(33.4632 180.447 6.35215)
(20.1 179.643 7.21972)
(20.1 178.305 8.29758)
(24.1989 178.315 8.2912)
(26.5235 178.971 7.80857)
(29.3371 179.649 7.21448)
(29.893 179.769 7.09704)
(20.1 176.895 9.08843)
(21.8929 177.562 8.75161)
(22.6174 177.811 8.60967)
(23.3661 178.055 8.4602)
(62.1 237.7 -1.45482)
(62.1 237.702 -1.29608)
(62.1 237.721 -0.661238)
(62.1 237.695 -1.93105)
(62.1 237.697 -1.7723)
(62.1 237.699 -1.61356)
(62.1 237.713 -0.184887)
(62.1 237.715 -0.0261449)
(62.1 237.718 0.291339)
(62.1 237.721 0.608822)
(62.1 237.703 -1.13734)
(62.1 237.705 -0.978595)
(62.1 237.708 -0.661111)
(62.1 237.71 -0.502371)
(62.1 237.712 -0.343629)
(62.1 237.546 4.81437)
(62.1 235.181 0.634661)
(62.1 221.886 42.522)
(62.1 207.607 45.2776)
(62.1 217.087 47.5066)
(62.1 207.586 48.6565)
(62.1 211.786 51.9531)
(62.1 183.467 -6.69049)
(62.1 198.403 17.4825)
(62.1 201.111 21.7871)
(62.1 229.763 31.1691)
(62.1 232.753 24.9297)
(62.1 205.921 33.6185)
(62.1 233.537 -3.14693)
(62.1 233.125 -3.46987)
(62.1 235.172 -0.283787)
(62.1 235.17 -0.436863)
(62.1 235.158 -1.66146)
(62.1 235.145 -1.81005)
(62.1 236.667 11.6772)
(62.1 204.991 30.5278)
(62.1 203.15 25.8275)
(62.1 207.495 50.2715)
(62.1 207.449 50.865)
(62.1 207.345 51.9722)
(62.1 232.71 -3.78729)
(62.1 232.242 -4.13622)
(62.1 231.871 -4.40556)
(62.1 235.063 18.4077)
(62.1 206.353 35.3662)
(62.1 206.849 37.8139)
(62.1 226.127 37.0555)
(62.1 207.226 40.2967)
(62.1 207.421 42.1006)
(62.1 201.447 -12.4968)
(62.1 199.976 -12.321)
(62.1 217.812 -11.1418)
(62.1 217.263 -11.2891)
(62.1 215.273 -11.761)
(62.1 213.363 -12.1239)
(62.1 235.164 -1.04916)
(62.1 235.163 -1.20224)
(62.1 235.161 -1.35531)
(62.1 207.283 52.5263)
(62.1 207.215 53.0808)
(62.1 207.141 53.6356)
(62.1 212.922 -12.1953)
(62.1 210.358 -12.5214)
(62.1 209.411 -12.6036)
(62.1 235.169 -0.589937)
(62.1 235.166 -0.896088)
(62.1 234.756 -2.14496)
(62.1 234.957 -1.97313)
(62.1 235.16 -1.50839)
(62.1 197.68 -11.9476)
(62.1 197.483 -11.9098)
(62.1 195.13 -11.3884)
(62.1 189.708 -9.667)
(62.1 187.707 -8.83671)
(62.1 185.316 -7.69392)
(62.1 207.779 -12.6977)
(62.1 205.188 -12.7241)
(62.1 202.586 -12.5993)
(62.1 235.178 0.328512)
(62.1 235.175 0.0223618)
(62.1 235.173 -0.130713)
(62.1 183.688 3.54219)
(62.1 187.049 5.82698)
(62.1 187.88 6.45524)
(62.1 207.019 54.4682)
(62.1 206.975 54.7459)
(62.1 206.929 55.0235)
(62.1 192.617 -10.6832)
(62.1 190.142 -9.83276)
(62.1 231.35 -4.77521)
(62.1 230.163 -5.57578)
(62.1 229.177 -6.20011)
(62.1 224.813 -8.55569)
(62.1 222.709 -9.47673)
(62.1 221.088 -10.0996)
(62.1 220.29 -10.3794)
(62.1 234.555 -2.31541)
(62.1 234.353 -2.48447)
(62.1 234.15 -2.65216)
(62.1 190.412 8.54645)
(62.1 191.753 9.77302)
(62.1 193.511 11.5229)
(62.1 227.364 -7.25612)
(62.1 225.068 -8.43542)
(62.1 195.273 13.462)
(62.1 196.335 14.7356)
(62.1 233.946 -2.81846)
(62.1 233.716 -3.00407)
(62.1 207.102 53.9131)
(62.1 207.061 54.1906)
(29.2727 176.957 -9.05991)
(28.1254 177.245 -8.91943)
(62.1 177.254 -8.91516)
(21.5047 179.075 -7.72424)
(20.1 179.501 -7.35341)
(20.1 179.996 -6.86473)
(58.7058 179.985 -6.87552)
(62.1 179.901 -6.9638)
(62.1 178.713 -8.00814)
(26.5585 177.653 -8.70087)
(23.9669 178.361 -8.25954)
(41.4935 174.411 -9.85677)
(37.3067 175.173 -9.69543)
(62.1 175.661 -9.55899)
(35.051 175.632 -9.56787)
(32.1048 176.281 -9.3461)
(44.2821 173.967 -9.92245)
(62.1 173.981 -9.92064)
(45.7841 173.75 -9.94726)
(59.7105 172.457 -9.99644)
(54.9626 172.751 -9.99996)
(50.1699 173.202 -9.98858)
(49.3568 180.544 -6.23279)
(53.5302 180.241 -6.5954)
(56.5924 180.072 -6.78287)
(22.7696 178.703 -8.01543)
(57.7004 180.023 -6.83511)
(36.9234 181.748 -4.30905)
(40.9932 181.331 -5.09122)
(20.1 181.063 -5.51867)
(43.7398 181.055 -5.53166)
(45.1495 180.918 -5.73204)
(35.6049 181.88 -4.02038)
(20.1 181.885 -4.0097)
(33.4632 182.087 -3.51255)
(20.1 182.436 -2.38236)
(20.1 182.701 -0.684691)
(24.1989 182.7 -0.696094)
(26.5235 182.61 -1.50586)
(29.3371 182.434 -2.38971)
(29.893 182.393 -2.55262)
(20.1 182.68 0.93169)
(21.8929 182.722 0.18569)
(22.6174 182.723 -0.100303)
(23.3661 182.717 -0.387119)
(62.1 205.473 -56.1407)
(62.1 205.75 -55.9848)
(62.1 204.65 -56.6194)
(62.1 203.676 -57.1544)
(62.1 203.814 -57.0764)
(62.1 203.952 -56.9984)
(62.1 204.09 -56.9204)
(62.1 204.229 -56.8425)
(62.1 204.367 -56.7645)
(62.1 204.644 -56.6086)
(62.1 204.782 -56.5306)
(62.1 204.92 -56.4526)
(62.1 205.059 -56.3746)
(62.1 205.197 -56.2967)
(64.1 193.493 61.5927)
(64.1 199.922 59.0362)
(64.1 107.738 -1.35761)
(64.1 108.251 -8.25749)
(64.1 109.494 -15.0638)
(64.1 111.453 -21.6994)
(64.1 114.107 -28.0892)
(64.1 117.424 -34.1607)
(64.1 121.369 -39.8452)
(64.1 125.895 -45.0782)
(64.1 130.952 -49.8004)