/*--------------------------------*- C++ -*----------------------------------*\
| =========                 |                                                 |
| \\      /  F ield         | OpenFOAM: The Open Source CFD Toolbox           |
|  \\    /   O peration     | Version:  v2006                                 |
|   \\  /    A nd           | Website:  www.openfoam.com                      |
|    \\/     M anipulation  |                                                 |
\*---------------------------------------------------------------------------*/
FoamFile
{
    version     2.0;
    format      ascii;
    class       extendedFeatureEdgeMesh;
    location    "constant/extendedFeatureEdgeMesh";
    object      rotatingAMI.extendedFeatureEdgeMesh;
}
// * * * * * * * * * * * * * * * * * * * * * * * * * * * * * * * * * * * * * //

// points

122
(
(62.1 240.705 -14.4499)
(62.1 241.843 -7.26473)
(62.1 172.724 0)
(62.1 242.224 -2.25514e-14)
(62.1 241.843 7.26473)
(62.1 232.913 -34.75)
(62.1 236.215 -28.2682)
(62.1 238.822 -21.4767)
(62.1 219.229 -51.6486)
(62.1 224.373 -46.5046)
(62.1 228.951 -40.8511)
(62.1 200.992 -63.4914)
(62.1 207.474 -60.1888)
(62.1 213.575 -56.2267)
(62.1 179.989 -69.1193)
(62.1 187.174 -67.9813)
(62.1 194.201 -66.0984)
(62.1 158.274 -67.9813)
(62.1 165.459 -69.1193)
(62.1 172.724 -69.5)
(62.1 137.974 -60.1888)
(62.1 144.456 -63.4914)
(62.1 151.247 -66.0984)
(62.1 121.076 -46.5046)
(62.1 126.219 -51.6486)
(62.1 131.873 -56.2267)
(62.1 109.233 -28.2682)
(62.1 112.535 -34.75)
(62.1 116.497 -40.8511)
(62.1 103.605 -7.26473)
(62.1 104.743 -14.4499)
(62.1 106.626 -21.4767)
(62.1 104.743 14.4499)
(62.1 103.605 7.26473)
(62.1 103.224 0)
(62.1 112.535 34.75)
(62.1 109.233 28.2682)
(62.1 106.626 21.4767)
(62.1 126.219 51.6486)
(62.1 121.076 46.5046)
(62.1 116.497 40.8511)
(62.1 144.456 63.4914)
(62.1 137.974 60.1888)
(62.1 131.873 56.2267)
(62.1 165.459 69.1193)
(62.1 158.274 67.9813)
(62.1 151.247 66.0984)
(62.1 187.174 67.9813)
(62.1 179.989 69.1193)
(62.1 172.724 69.5)
(62.1 207.474 60.1888)
(62.1 200.992 63.4914)
(62.1 194.201 66.0984)
(62.1 224.373 46.5046)
(62.1 219.229 51.6486)
(62.1 213.575 56.2267)
(62.1 236.215 28.2682)
(62.1 232.913 34.75)
(62.1 228.951 40.8511)
(62.1 240.705 14.4499)
(62.1 238.822 21.4767)
(12.1 163.276 -0.99302)
(12.1 163.432 -1.97516)
(12.1 163.689 -2.93566)
(12.1 164.045 -3.864)
(12.1 164.497 -4.75)
(12.1 165.038 -5.58396)
(12.1 165.664 -6.35674)
(12.1 166.367 -7.05988)
(12.1 167.14 -7.68566)
(12.1 167.974 -8.22724)
(12.1 168.86 -8.67868)
(12.1 169.788 -9.03504)
(12.1 170.749 -9.2924)
(12.1 171.731 -9.44796)
(12.1 172.724 -9.5)
(12.1 173.717 -9.44796)
(12.1 174.699 -9.2924)
(12.1 175.66 -9.03504)
(12.1 176.588 -8.67868)
(12.1 177.474 -8.22724)
(12.1 178.308 -7.68566)
(12.1 179.081 -7.05988)
(12.1 179.784 -6.35674)
(12.1 180.41 -5.58396)
(12.1 180.951 -4.75)
(12.1 181.403 -3.864)
(12.1 181.759 -2.93566)
(12.1 182.016 -1.97516)
(12.1 182.172 -0.99302)
(12.1 182.224 -1.73472e-15)
(12.1 182.172 0.99302)
(12.1 182.016 1.97516)
(12.1 181.759 2.93566)
(12.1 181.403 3.864)
(12.1 180.951 4.75)
(12.1 180.41 5.58396)
(12.1 179.784 6.35674)
(12.1 179.081 7.05988)
(12.1 178.308 7.68566)
(12.1 177.474 8.22724)
(12.1 176.588 8.67868)
(12.1 175.66 9.03504)
(12.1 174.699 9.2924)
(12.1 173.717 9.44796)
(12.1 172.724 9.5)
(12.1 171.731 9.44796)
(12.1 170.749 9.2924)
(12.1 169.788 9.03504)
(12.1 168.86 8.67868)
(12.1 167.974 8.22724)
(12.1 167.14 7.68566)
(12.1 166.367 7.05988)
(12.1 165.664 6.35674)
(12.1 165.038 5.58396)
(12.1 164.497 4.75)
(12.1 164.045 3.864)
(12.1 163.689 2.93566)
(12.1 163.432 1.97516)
(12.1 163.276 0.99302)
(12.1 163.224 0)
(12.1 172.724 0)
)

// edges

360
(
(0 1)
(1 3)
(3 4)
(5 6)
(6 7)
(7 0)
(8 9)
(9 10)
(10 5)
(11 12)
(12 13)
(13 8)
(14 15)
(15 16)
(16 11)
(17 18)
(18 19)
(19 14)
(20 21)
(21 22)
(22 17)
(23 24)
(24 25)
(25 20)
(26 27)
(27 28)
(28 23)
(29 30)
(30 31)
(31 26)
(32 33)
(33 34)
(34 29)
(35 36)
(36 37)
(37 32)
(38 39)
(39 40)
(40 35)
(41 42)
(42 43)
(43 38)
(44 45)
(45 46)
(46 41)
(47 48)
(48 49)
(49 44)
(50 51)
(51 52)
(52 47)
(53 54)
(54 55)
(55 50)
(56 57)
(57 58)
(58 53)
(4 59)
(59 60)
(60 56)
(61 29)
(61 62)
(62 30)
(62 63)
(63 31)
(63 64)
(64 26)
(64 65)
(65 27)
(65 66)
(66 28)
(66 67)
(67 23)
(67 68)
(68 24)
(68 69)
(69 25)
(69 70)
(70 20)
(70 71)
(71 21)
(71 72)
(72 22)
(72 73)
(73 17)
(73 74)
(74 18)
(74 75)
(75 19)
(75 76)
(76 14)
(76 77)
(77 15)
(77 78)
(78 16)
(78 79)
(79 11)
(79 80)
(80 12)
(80 81)
(81 13)
(81 82)
(82 8)
(82 83)
(83 9)
(83 84)
(84 10)
(84 85)
(85 5)
(85 86)
(86 6)
(86 87)
(87 7)
(87 88)
(88 0)
(88 89)
(89 1)
(89 90)
(90 3)
(90 91)
(91 4)
(91 92)
(92 59)
(92 93)
(93 60)
(93 94)
(94 56)
(94 95)
(95 57)
(95 96)
(96 58)
(96 97)
(97 53)
(97 98)
(98 54)
(98 99)
(99 55)
(99 100)
(100 50)
(100 101)
(101 51)
(101 102)
(102 52)
(102 103)
(103 47)
(103 104)
(104 48)
(104 105)
(105 49)
(105 106)
(106 44)
(106 107)
(107 45)
(107 108)
(108 46)
(108 109)
(109 41)
(109 110)
(110 42)
(110 111)
(111 43)
(111 112)
(112 38)
(112 113)
(113 39)
(113 114)
(114 40)
(114 115)
(115 35)
(115 116)
(116 36)
(116 117)
(117 37)
(117 118)
(118 32)
(118 119)
(119 33)
(119 120)
(120 34)
(120 61)
(62 29)
(65 26)
(68 23)
(70 25)
(71 20)
(74 17)
(75 18)
(76 19)
(78 15)
(81 12)
(82 13)
(84 9)
(85 10)
(87 6)
(89 0)
(91 3)
(93 59)
(95 56)
(98 53)
(101 50)
(102 51)
(104 47)
(108 45)
(109 46)
(112 43)
(114 39)
(115 40)
(117 36)
(118 37)
(120 33)
(1 2)
(2 0)
(3 2)
(4 2)
(6 2)
(2 5)
(7 2)
(9 2)
(2 8)
(10 2)
(12 2)
(2 11)
(13 2)
(15 2)
(2 14)
(16 2)
(18 2)
(2 17)
(19 2)
(21 2)
(2 20)
(22 2)
(24 2)
(2 23)
(25 2)
(27 2)
(2 26)
(28 2)
(30 2)
(2 29)
(31 2)
(33 2)
(2 32)
(34 2)
(36 2)
(2 35)
(37 2)
(39 2)
(2 38)
(40 2)
(42 2)
(2 41)
(43 2)
(45 2)
(2 44)
(46 2)
(48 2)
(2 47)
(49 2)
(51 2)
(2 50)
(52 2)
(54 2)
(2 53)
(55 2)
(57 2)
(2 56)
(58 2)
(59 2)
(60 2)
(34 61)
(63 30)
(64 31)
(66 27)
(67 28)
(69 24)
(72 21)
(73 22)
(77 14)
(79 16)
(80 11)
(83 8)
(86 5)
(88 7)
(90 1)
(92 4)
(94 60)
(96 57)
(97 58)
(99 54)
(100 55)
(103 52)
(105 48)
(106 49)
(107 44)
(110 41)
(111 42)
(113 38)
(116 35)
(119 32)
(91 121)
(121 92)
(90 121)
(89 121)
(94 121)
(121 95)
(93 121)
(97 121)
(121 98)
(96 121)
(100 121)
(121 101)
(99 121)
(103 121)
(121 104)
(102 121)
(106 121)
(121 107)
(105 121)
(109 121)
(121 110)
(108 121)
(112 121)
(121 113)
(111 121)
(115 121)
(121 116)
(114 121)
(118 121)
(121 119)
(117 121)
(61 121)
(121 62)
(120 121)
(64 121)
(121 65)
(63 121)
(67 121)
(121 68)
(66 121)
(70 121)
(121 71)
(69 121)
(73 121)
(121 74)
(72 121)
(76 121)
(121 77)
(75 121)
(79 121)
(121 80)
(78 121)
(82 121)
(121 83)
(81 121)
(85 121)
(121 86)
(84 121)
(88 121)
(87 121)
)

// concaveStart mixedStart nonFeatureStart
0 0 122
// internalStart flatStart openStart multipleStart
180 180 360 360
// normals

240
(
(1 0 -0)
(-0.767789 0.632814 -0.100227)
(1 0 0)
(-0.767789 0.639824 -0.0335285)
(1 -0 0)
(-0.767789 0.639825 0.0335286)
(1 0 -0)
(-0.767789 0.570872 -0.29087)
(1 0 0)
(-0.767789 0.598145 -0.229614)
(1 0 0)
(-0.76779 0.618871 -0.165824)
(1 0 -0)
(-0.767789 0.453044 -0.453046)
(1 0 0)
(-0.767789 0.49792 -0.403206)
(1 0 0)
(-0.767789 0.537338 -0.348952)
(1 0 -0)
(-0.767789 0.290873 -0.57087)
(1 0 0)
(-0.767789 0.348951 -0.537339)
(1 0 0)
(-0.767789 0.403207 -0.497919)
(1 0 -0)
(-0.767789 0.100228 -0.632814)
(1 0 0)
(-0.767789 0.165827 -0.618871)
(1 0 0)
(-0.767789 0.229607 -0.598147)
(1 -0 0)
(-0.767789 -0.100228 -0.632814)
(1 0 0)
(-0.767789 -0.0335321 -0.639824)
(1 0 0)
(-0.767789 0.0335316 -0.639824)
(1 -0 0)
(-0.767789 -0.290873 -0.57087)
(1 0 0)
(-0.767789 -0.229604 -0.598148)
(1 0 0)
(-0.767789 -0.165827 -0.618871)
(1 -0 0)
(-0.767789 -0.453044 -0.453046)
(1 0 0)
(-0.767789 -0.403207 -0.497919)
(1 0 0)
(-0.767789 -0.348955 -0.537336)
(1 -0 0)
(-0.767789 -0.570868 -0.290877)
(1 0 0)
(-0.767789 -0.537338 -0.348952)
(1 0 0)
(-0.767789 -0.49792 -0.403206)
(1 -0 0)
(-0.767789 -0.632815 -0.100227)
(1 0 0)
(-0.767789 -0.618872 -0.165824)
(1 0 0)
(-0.76779 -0.598148 -0.229605)
(1 0 0)
(-0.767789 -0.632815 0.100227)
(1 0 0)
(-0.767789 -0.639824 0.0335379)
(1 0 0)
(-0.767789 -0.639824 -0.0335379)
(1 0 0)
(-0.767789 -0.570868 0.290877)
(1 0 0)
(-0.767789 -0.598148 0.229605)
(1 0 0)
(-0.767789 -0.618872 0.165824)
(1 0 0)
(-0.767789 -0.453044 0.453046)
(1 0 0)
(-0.767789 -0.49792 0.403206)
(1 0 0)
(-0.767789 -0.537338 0.348952)
(1 0 0)
(-0.767789 -0.290873 0.57087)
(1 0 0)
(-0.767789 -0.348955 0.537336)
(1 0 0)
(-0.767789 -0.403207 0.497919)
(1 0 0)
(-0.767789 -0.100228 0.632814)
(1 0 0)
(-0.767789 -0.165827 0.618871)
(1 0 0)
(-0.767789 -0.229604 0.598148)
(1 0 0)
(-0.767789 0.100228 0.632814)
(1 0 0)
(-0.767789 0.0335316 0.639824)
(1 0 -0)
(-0.767789 -0.0335321 0.639824)
(1 0 0)
(-0.767789 0.290873 0.57087)
(1 0 0)
(-0.767789 0.229608 0.598147)
(1 0 0)
(-0.767789 0.165827 0.618871)
(1 0 0)
(-0.767789 0.453044 0.453046)
(1 0 0)
(-0.767789 0.403207 0.497919)
(1 0 0)
(-0.767789 0.348951 0.537339)
(1 0 0)
(-0.767789 0.570872 0.29087)
(1 0 0)
(-0.767789 0.537338 0.348952)
(1 0 0)
(-0.767789 0.49792 0.403206)
(1 0 0)
(-0.76779 0.632814 0.100227)
(1 0 0)
(-0.767789 0.618871 0.165824)
(1 0 0)
(-0.767789 0.598145 0.229613)
(-0.76779 -0.632819 -0.100194)
(-1 0 0)
(-0.767788 -0.618866 -0.165847)
(-1 0 0)
(-0.767789 -0.598138 -0.229632)
(-1 0 0)
(-0.76779 -0.570879 -0.290852)
(-1 0 0)
(-0.767789 -0.53733 -0.348966)
(-1 0 0)
(-0.767789 -0.497917 -0.40321)
(-1 0 0)
(-0.76779 -0.453058 -0.453032)
(-1 0 0)
(-0.767789 -0.403197 -0.497928)
(-1 0 0)
(-0.76779 -0.348971 -0.537325)
(-1 0 0)
(-0.767789 -0.290874 -0.57087)
(-1 0 0)
(-0.767789 -0.229592 -0.598154)
(-1 0 0)
(-0.767789 -0.165827 -0.618871)
(-1 0 0)
(-0.767789 -0.100232 -0.632814)
(-1 0 0)
(-0.767789 -0.0335326 -0.639824)
(-1 0 -0)
(-0.767789 0.033529 -0.639824)
(-1 0 0)
(-0.767789 0.100232 -0.632814)
(-1 -0 0)
(-0.767789 0.165827 -0.618871)
(-1 0 0)
(-0.767789 0.229615 -0.598145)
(-1 0 0)
(-0.767789 0.290874 -0.57087)
(-1 -0 0)
(-0.76779 0.34894 -0.537346)
(-1 0 0)
(-0.767789 0.403202 -0.497923)
(-1 0 0)
(-0.767789 0.453054 -0.453037)
(-1 -0 0)
(-0.767789 0.497917 -0.40321)
(-1 0 0)
(-0.767789 0.537334 -0.348958)
(-1 0 0)
(-0.767789 0.570881 -0.290853)
(-1 -0 0)
(-0.76779 0.598137 -0.229632)
(-1 0 0)
(-0.767788 0.618881 -0.165792)
(-1 0 0)
(-0.76779 0.63281 -0.100252)
(-1 -0 0)
(-0.767789 0.639827 -0.0335061)
(-1 0 0)
(-0.76779 0.639825 0.033506)
(-1 0 0)
(-0.767789 0.632811 0.100252)
(-1 0 -0)
(-0.76779 0.618879 0.165792)
(-1 0 0)
(-0.767789 0.598138 0.229632)
(-1 0 0)
(-0.76779 0.57088 0.290852)
(-1 0 -0)
(-0.767789 0.537334 0.348959)
(-1 0 0)
(-0.767789 0.497917 0.40321)
(-1 0 0)
(-0.76779 0.453053 0.453037)
(-1 0 -0)
(-0.767789 0.403202 0.497924)
(-1 0 0)
(-0.767789 0.34894 0.537346)
(-1 0 0)
(-0.767789 0.290874 0.57087)
(-1 0 -0)
(-0.76779 0.229615 0.598144)
(-1 0 0)
(-0.767789 0.165827 0.618871)
(-1 0 0)
(-0.767789 0.100232 0.632814)
(-1 0 -0)
(-0.767789 0.033529 0.639825)
(-1 0 0)
(-0.767789 -0.0335326 0.639824)
(-1 0 0)
(-0.767789 -0.100232 0.632814)
(-1 0 0)
(-0.767789 -0.165827 0.618871)
(-1 0 0)
(-0.76779 -0.229592 0.598153)
(-1 0 0)
(-0.767789 -0.290874 0.57087)
(-1 0 0)
(-0.767789 -0.348972 0.537326)
(-1 0 0)
(-0.76779 -0.403197 0.497927)
(-1 0 0)
(-0.767789 -0.453059 0.453033)
(-1 0 0)
(-0.767789 -0.497917 0.40321)
(-1 0 0)
(-0.76779 -0.537329 0.348965)
(-1 0 0)
(-0.767789 -0.570881 0.290853)
(-1 0 0)
(-0.76779 -0.598137 0.229632)
(-1 0 0)
(-0.76779 -0.618865 0.165847)
(-1 0 0)
(-0.767788 -0.632821 0.100195)
(-1 0 0)
(-0.76779 -0.639822 0.0335648)
(-1 0 0)
(-0.767788 -0.639824 -0.0335649)
(-1 -0 0)
)

// normal volume types

240
(
0
0
0
0
0
0
0
0
0
0
0
0
0
0
0
0
0
0
0
0
0
0
0
0
0
0
0
0
0
0
0
0
0
0
0
0
0
0
0
0
0
0
0
0
0
0
0
0
0
0
0
0
0
0
0
0
0
0
0
0
0
0
0
0
0
0
0
0
0
0
0
0
0
0
0
0
0
0
0
0
0
0
0
0
0
0
0
0
0
0
0
0
0
0
0
0
0
0
0
0
0
0
0
0
0
0
0
0
0
0
0
0
0
0
0
0
0
0
0
0
0
0
0
0
0
0
0
0
0
0
0
0
0
0
0
0
0
0
0
0
0
0
0
0
0
0
0
0
0
0
0
0
0
0
0
0
0
0
0
0
0
0
0
0
0
0
0
0
0
0
0
0
0
0
0
0
0
0
0
0
0
0
0
0
0
0
0
0
0
0
0
0
0
0
0
0
0
0
0
0
0
0
0
0
0
0
0
0
0
0
0
0
0
0
0
0
0
0
0
0
0
0
0
0
0
0
0
0
0
0
0
0
0
0
0
0
0
0
0
0
)

// normalDirections

360
(
2(1 -1)
2(1 -1)
2(1 -1)
2(1 -1)
2(1 -1)
2(1 -1)
2(1 -1)
2(1 -1)
2(1 -1)
2(1 -1)
2(1 -1)
2(1 -1)
2(1 -1)
2(1 -1)
2(1 -1)
2(1 -1)
2(1 -1)
2(1 -1)
2(1 -1)
2(1 -1)
2(1 -1)
2(1 -1)
2(1 -1)
2(1 -1)
2(1 -1)
2(1 -1)
2(1 -1)
2(1 -1)
2(1 -1)
2(1 -1)
2(1 -1)
2(1 -1)
2(1 -1)
2(1 -1)
2(1 -1)
2(1 -1)
2(1 -1)
2(1 -1)
2(1 -1)
2(1 -1)
2(1 -1)
2(1 -1)
2(1 -1)
2(1 -1)
2(1 -1)
2(1 -1)
2(1 -1)
2(1 -1)
2(1 -1)
2(1 -1)
2(1 -1)
2(1 -1)
2(1 -1)
2(1 -1)
2(1 -1)
2(1 -1)
2(1 -1)
2(1 -1)
2(1 -1)
2(1 -1)
2(1 -1)
2(1 -1)
2(1 -1)
2(1 -1)
2(1 -1)
2(1 -1)
2(1 -1)
2(1 -1)
2(1 -1)
2(1 -1)
2(1 -1)
2(1 -1)
2(1 -1)
2(1 -1)
2(1 -1)
2(1 -1)
2(1 -1)
2(1 -1)
2(1 -1)
2(1 -1)
2(1 -1)
2(1 -1)
2(1 -1)
2(1 -1)
2(1 -1)
2(1 -1)
2(1 -1)
2(1 -1)
2(1 -1)
2(1 -1)
2(1 -1)
2(1 -1)
2(1 -1)
2(1 -1)
2(1 -1)
2(1 -1)
2(1 -1)
2(1 -1)
2(1 -1)
2(1 -1)
2(1 -1)
2(1 -1)
2(1 -1)
2(1 -1)
2(1 -1)
2(1 -1)
2(1 -1)
2(1 -1)
2(1 -1)
2(1 -1)
2(1 -1)
2(1 -1)
2(1 -1)
2(1 -1)
2(1 -1)
2(1 -1)
2(1 -1)
2(1 -1)
2(1 -1)
2(1 -1)
2(1 -1)
2(1 -1)
2(1 -1)
2(1 -1)
2(1 -1)
2(1 -1)
2(1 -1)
2(1 -1)
2(1 -1)
2(1 -1)
2(1 -1)
2(1 -1)
2(1 -1)
2(1 -1)
2(1 -1)
2(1 -1)
2(1 -1)
2(1 -1)
2(1 -1)
2(1 -1)
2(1 -1)
2(1 -1)
2(1 -1)
2(1 -1)
2(1 -1)
2(1 -1)
2(1 -1)
2(1 -1)
2(1 -1)
2(1 -1)
2(1 -1)
2(1 -1)
2(1 -1)
2(1 -1)
2(1 -1)
2(1 -1)
2(1 -1)
2(1 -1)
2(1 -1)
2(1 -1)
2(1 -1)
2(1 -1)
2(1 -1)
2(1 -1)
2(1 -1)
2(1 -1)
2(1 -1)
2(1 -1)
2(1 -1)
2(1 -1)
2(1 -1)
2(1 -1)
2(1 -1)
2(1 -1)
2(1 -1)
2(1 -1)
2(1 -1)
2(1 -1)
2(1 -1)
2(1 -1)
2(1 -1)
2(1 -1)
2(1 -1)
2(1 -1)
2(1 -1)
2(1 -1)
2(1 -1)
2(1 -1)
2(1 -1)
2(1 -1)
2(1 -1)
2(1 -1)
2(1 -1)
2(1 -1)
2(1 -1)
2(1 -1)
2(1 -1)
2(1 -1)
2(1 -1)
2(1 -1)
2(1 -1)
2(1 -1)
2(1 -1)
2(1 -1)
2(1 -1)
2(1 -1)
2(1 -1)
2(1 -1)
2(1 -1)
2(1 -1)
2(1 -1)
2(1 -1)
2(1 -1)
2(1 -1)
2(1 -1)
2(1 -1)
2(1 -1)
2(1 -1)
2(1 -1)
2(1 -1)
2(1 -1)
2(1 -1)
2(1 -1)
2(1 -1)
2(1 -1)
2(1 -1)
2(1 -1)
2(1 -1)
2(1 -1)
2(1 -1)
2(1 -1)
2(1 -1)
2(1 -1)
2(1 -1)
2(1 -1)
2(1 -1)
2(1 -1)
2(1 -1)
2(1 -1)
2(1 -1)
2(1 -1)
2(1 -1)
2(1 -1)
2(1 -1)
2(1 -1)
2(1 -1)
2(1 -1)
2(1 -1)
2(1 -1)
2(1 -1)
2(1 -1)
2(1 -1)
2(1 -1)
2(1 -1)
2(1 -1)
2(1 -1)
2(1 -1)
2(1 -1)
2(1 -1)
2(1 -1)
2(1 -1)
2(1 -1)
2(1 -1)
2(1 -1)
2(1 -1)
2(1 -1)
2(1 -1)
2(1 -1)
2(1 -1)
2(1 -1)
2(1 -1)
2(1 -1)
2(1 -1)
2(1 -1)
2(1 -1)
2(1 -1)
2(1 -1)
2(1 -1)
2(1 -1)
2(1 -1)
2(1 -1)
2(1 -1)
2(1 -1)
2(1 -1)
2(1 -1)
2(1 -1)
2(1 -1)
2(1 -1)
2(1 -1)
2(1 -1)
2(1 -1)
2(1 -1)
2(1 -1)
2(1 -1)
2(1 -1)
2(1 -1)
2(1 -1)
2(1 -1)
2(1 -1)
2(1 -1)
2(1 -1)
2(1 -1)
2(1 -1)
2(1 -1)
2(1 -1)
2(1 -1)
2(1 -1)
2(1 -1)
2(1 -1)
2(1 -1)
2(1 -1)
2(1 -1)
2(1 -1)
2(1 -1)
2(1 -1)
2(1 -1)
2(1 -1)
2(1 -1)
2(1 -1)
2(1 -1)
2(1 -1)
2(1 -1)
2(1 -1)
2(1 -1)
2(1 -1)
2(1 -1)
2(1 -1)
2(1 -1)
2(1 -1)
2(1 -1)
2(1 -1)
2(1 -1)
2(1 -1)
2(1 -1)
2(1 -1)
2(1 -1)
2(1 -1)
2(1 -1)
2(1 -1)
2(1 -1)
2(1 -1)
2(1 -1)
2(1 -1)
2(1 -1)
2(1 -1)
2(1 -1)
2(1 -1)
2(1 -1)
2(1 -1)
2(1 -1)
2(1 -1)
2(1 -1)
2(1 -1)
2(1 -1)
2(1 -1)
2(1 -1)
2(1 -1)
2(1 -1)
2(1 -1)
2(1 -1)
)

// edgeNormals

360
(
2(0 1)
2(2 3)
2(4 5)
2(6 7)
2(8 9)
2(10 11)
2(12 13)
2(14 15)
2(16 17)
2(18 19)
2(20 21)
2(22 23)
2(24 25)
2(26 27)
2(28 29)
2(30 31)
2(32 33)
2(34 35)
2(36 37)
2(38 39)
2(40 41)
2(42 43)
2(44 45)
2(46 47)
2(48 49)
2(50 51)
2(52 53)
2(54 55)
2(56 57)
2(58 59)
2(60 61)
2(62 63)
2(64 65)
2(66 67)
2(68 69)
2(70 71)
2(72 73)
2(74 75)
2(76 77)
2(78 79)
2(80 81)
2(82 83)
2(84 85)
2(86 87)
2(88 89)
2(90 91)
2(92 93)
2(94 95)
2(96 97)
2(98 99)
2(100 101)
2(102 103)
2(104 105)
2(106 107)
2(108 109)
2(110 111)
2(112 113)
2(114 115)
2(116 117)
2(118 119)
2(65 120)
2(120 121)
2(55 122)
2(122 123)
2(57 124)
2(124 125)
2(59 126)
2(126 127)
2(49 128)
2(128 129)
2(51 130)
2(130 131)
2(53 132)
2(132 133)
2(43 134)
2(134 135)
2(45 136)
2(136 137)
2(47 138)
2(138 139)
2(37 140)
2(140 141)
2(39 142)
2(142 143)
2(41 144)
2(144 145)
2(31 146)
2(146 147)
2(33 148)
2(148 149)
2(35 150)
2(150 151)
2(25 152)
2(152 153)
2(27 154)
2(154 155)
2(29 156)
2(156 157)
2(19 158)
2(158 159)
2(21 160)
2(160 161)
2(23 162)
2(162 163)
2(13 164)
2(164 165)
2(15 166)
2(166 167)
2(17 168)
2(168 169)
2(7 170)
2(170 171)
2(9 172)
2(172 173)
2(11 174)
2(174 175)
2(1 176)
2(176 177)
2(3 178)
2(178 179)
2(5 180)
2(180 181)
2(115 182)
2(182 183)
2(117 184)
2(184 185)
2(119 186)
2(186 187)
2(109 188)
2(188 189)
2(111 190)
2(190 191)
2(113 192)
2(192 193)
2(103 194)
2(194 195)
2(105 196)
2(196 197)
2(107 198)
2(198 199)
2(97 200)
2(200 201)
2(99 202)
2(202 203)
2(101 204)
2(204 205)
2(91 206)
2(206 207)
2(93 208)
2(208 209)
2(95 210)
2(210 211)
2(85 212)
2(212 213)
2(87 214)
2(214 215)
2(89 216)
2(216 217)
2(79 218)
2(218 219)
2(81 220)
2(220 221)
2(83 222)
2(222 223)
2(73 224)
2(224 225)
2(75 226)
2(226 227)
2(77 228)
2(228 229)
2(67 230)
2(230 231)
2(69 232)
2(232 233)
2(71 234)
2(234 235)
2(61 236)
2(236 237)
2(63 238)
2(238 239)
2(120 55)
2(126 49)
2(132 43)
2(136 47)
2(138 37)
2(144 31)
2(146 33)
2(148 35)
2(152 27)
2(158 21)
2(160 23)
2(164 15)
2(166 17)
2(170 9)
2(174 1)
2(178 5)
2(182 117)
2(186 109)
2(192 103)
2(198 97)
2(200 99)
2(204 91)
2(212 87)
2(214 89)
2(220 83)
2(224 75)
2(226 77)
2(230 69)
2(232 71)
2(236 63)
2(0 2)
2(0 10)
2(2 4)
2(4 114)
2(6 8)
2(6 16)
2(8 10)
2(12 14)
2(12 22)
2(14 16)
2(18 20)
2(18 28)
2(20 22)
2(24 26)
2(24 34)
2(26 28)
2(30 32)
2(30 40)
2(32 34)
2(36 38)
2(36 46)
2(38 40)
2(42 44)
2(42 52)
2(44 46)
2(48 50)
2(48 58)
2(50 52)
2(54 56)
2(54 64)
2(56 58)
2(60 62)
2(60 70)
2(62 64)
2(66 68)
2(66 76)
2(68 70)
2(72 74)
2(72 82)
2(74 76)
2(78 80)
2(78 88)
2(80 82)
2(84 86)
2(84 94)
2(86 88)
2(90 92)
2(90 100)
2(92 94)
2(96 98)
2(96 106)
2(98 100)
2(102 104)
2(102 112)
2(104 106)
2(108 110)
2(108 118)
2(110 112)
2(114 116)
2(116 118)
2(65 238)
2(122 57)
2(124 59)
2(128 51)
2(130 53)
2(134 45)
2(140 39)
2(142 41)
2(150 25)
2(154 29)
2(156 19)
2(162 13)
2(168 7)
2(172 11)
2(176 3)
2(180 115)
2(184 119)
2(188 111)
2(190 113)
2(194 105)
2(196 107)
2(202 101)
2(206 93)
2(208 95)
2(210 85)
2(216 79)
2(218 81)
2(222 73)
2(228 67)
2(234 61)
2(181 179)
2(181 183)
2(179 177)
2(177 175)
2(187 185)
2(187 189)
2(185 183)
2(193 191)
2(193 195)
2(191 189)
2(199 197)
2(199 201)
2(197 195)
2(205 203)
2(205 207)
2(203 201)
2(211 209)
2(211 213)
2(209 207)
2(217 215)
2(217 219)
2(215 213)
2(223 221)
2(223 225)
2(221 219)
2(229 227)
2(229 231)
2(227 225)
2(235 233)
2(235 237)
2(233 231)
2(121 239)
2(121 123)
2(239 237)
2(127 125)
2(127 129)
2(125 123)
2(133 131)
2(133 135)
2(131 129)
2(139 137)
2(139 141)
2(137 135)
2(145 143)
2(145 147)
2(143 141)
2(151 149)
2(151 153)
2(149 147)
2(157 155)
2(157 159)
2(155 153)
2(163 161)
2(163 165)
2(161 159)
2(169 167)
2(169 171)
2(167 165)
2(175 173)
2(173 171)
)

// featurePointNormals

122
(
3(0 1 11)
3(0 1 3)
1(0)
3(2 3 5)
3(4 5 115)
3(6 7 17)
3(6 7 9)
3(8 9 11)
3(12 13 23)
3(12 13 15)
3(14 15 17)
3(18 19 29)
3(18 19 21)
3(20 21 23)
3(24 25 35)
3(24 25 27)
3(26 27 29)
3(30 31 41)
3(30 31 33)
3(32 33 35)
3(36 37 47)
3(36 37 39)
3(38 39 41)
3(42 43 53)
3(42 43 45)
3(44 45 47)
3(48 49 59)
3(48 49 51)
3(50 51 53)
3(54 55 65)
3(54 55 57)
3(56 57 59)
3(60 61 71)
3(60 61 63)
3(62 63 65)
3(66 67 77)
3(66 67 69)
3(68 69 71)
3(72 73 83)
3(72 73 75)
3(74 75 77)
3(78 79 89)
3(78 79 81)
3(80 81 83)
3(84 85 95)
3(84 85 87)
3(86 87 89)
3(90 91 101)
3(90 91 93)
3(92 93 95)
3(96 97 107)
3(96 97 99)
3(98 99 101)
3(102 103 113)
3(102 103 105)
3(104 105 107)
3(108 109 119)
3(108 109 111)
3(110 111 113)
3(114 115 117)
3(116 117 119)
3(65 120 121)
3(120 121 122)
3(122 123 124)
3(124 125 126)
3(126 127 128)
3(128 129 130)
3(130 131 132)
3(132 133 134)
3(134 135 136)
3(136 137 138)
3(138 139 140)
3(140 141 142)
3(142 143 144)
3(144 145 146)
3(146 147 148)
3(148 149 150)
3(150 151 152)
3(152 153 154)
3(154 155 156)
3(156 157 158)
3(158 159 160)
3(160 161 162)
3(162 163 164)
3(164 165 166)
3(166 167 168)
3(168 169 170)
3(170 171 172)
3(172 173 174)
3(174 175 176)
3(176 177 178)
3(178 179 180)
3(180 181 182)
3(182 183 184)
3(184 185 186)
3(186 187 188)
3(188 189 190)
3(190 191 192)
3(192 193 194)
3(194 195 196)
3(196 197 198)
3(198 199 200)
3(200 201 202)
3(202 203 204)
3(204 205 206)
3(206 207 208)
3(208 209 210)
3(210 211 212)
3(212 213 214)
3(214 215 216)
3(216 217 218)
3(218 219 220)
3(220 221 222)
3(222 223 224)
3(224 225 226)
3(226 227 228)
3(228 229 230)
3(230 231 232)
3(232 233 234)
3(234 235 236)
3(236 237 238)
1(181)
)

// featurePointEdges

122
(
5(211 5 114 194 0)
5(210 1 284 116 0)

60
(
210
212
213
268
269
266
265
267
263
262
264
260
259
261
257
256
258
254
253
255
251
250
252
248
247
249
245
244
246
242
241
243
239
238
240
236
235
237
233
232
234
230
229
231
227
226
228
224
223
225
221
220
222
218
217
219
215
214
216
211
)

5(212 2 195 118 1)
5(213 57 285 120 2)
5(215 8 108 282 3)
5(214 4 193 110 3)
5(216 5 283 112 4)
5(218 11 102 281 6)
5(217 7 191 104 6)
5(219 8 192 106 7)
5(221 14 96 280 9)
5(220 10 189 98 9)
5(222 11 190 100 10)
5(224 17 90 278 12)
5(223 13 188 92 12)
5(225 14 279 94 13)
5(227 20 84 185 15)
5(226 16 186 86 15)
5(228 17 187 88 16)
5(230 23 78 184 18)
5(229 19 276 80 18)
5(231 20 277 82 19)
5(233 26 72 182 21)
5(232 22 275 74 21)
5(234 23 183 76 22)
5(236 29 66 181 24)
5(235 25 273 68 24)
5(237 26 274 70 25)
5(239 32 60 180 27)
5(238 28 271 62 27)
5(240 29 272 64 28)
5(242 35 174 299 30)
5(241 31 209 176 30)
5(243 32 270 178 31)
5(245 38 168 298 33)
5(244 34 207 170 33)
5(246 35 208 172 34)
5(248 41 162 297 36)
5(247 37 205 164 36)
5(249 38 206 166 37)
5(251 44 156 295 39)
5(250 40 296 158 39)
5(252 41 204 160 40)
5(254 47 150 294 42)
5(253 43 202 152 42)
5(255 44 203 154 43)
5(257 50 144 201 45)
5(256 46 292 146 45)
5(258 47 293 148 46)
5(260 53 138 199 48)
5(259 49 200 140 48)
5(261 50 291 142 49)
5(263 56 132 198 51)
5(262 52 289 134 51)
5(264 53 290 136 52)
5(266 59 126 197 54)
5(265 55 287 128 54)
5(267 56 288 130 55)
5(268 58 196 122 57)
5(269 59 286 124 58)
5(60 61 331 179 270)
5(180 62 63 332 61)
5(271 64 65 336 63)
5(272 66 67 334 65)
5(181 68 69 335 67)
5(273 70 71 339 69)
5(274 72 73 337 71)
5(182 74 75 338 73)
5(275 76 77 342 75)
5(183 78 79 340 77)
5(184 80 81 341 79)
5(276 82 83 345 81)
5(277 84 85 343 83)
5(185 86 87 344 85)
5(186 88 89 348 87)
5(187 90 91 346 89)
5(278 92 93 347 91)
5(188 94 95 351 93)
5(279 96 97 349 95)
5(280 98 99 350 97)
5(189 100 101 354 99)
5(190 102 103 352 101)
5(281 104 105 353 103)
5(191 106 107 357 105)
5(192 108 109 355 107)
5(282 110 111 356 109)
5(193 112 113 359 111)
5(283 114 115 358 113)
5(194 116 117 303 115)
5(284 118 119 302 117)
5(195 120 121 300 119)
5(285 122 123 301 121)
5(196 124 125 306 123)
5(286 126 127 304 125)
5(197 128 129 305 127)
5(287 130 131 309 129)
5(288 132 133 307 131)
5(198 134 135 308 133)
5(289 136 137 312 135)
5(290 138 139 310 137)
5(199 140 141 311 139)
5(200 142 143 315 141)
5(291 144 145 313 143)
5(201 146 147 314 145)
5(292 148 149 318 147)
5(293 150 151 316 149)
5(294 152 153 317 151)
5(202 154 155 321 153)
5(203 156 157 319 155)
5(295 158 159 320 157)
5(296 160 161 324 159)
5(204 162 163 322 161)
5(297 164 165 323 163)
5(205 166 167 327 165)
5(206 168 169 325 167)
5(298 170 171 326 169)
5(207 172 173 330 171)
5(208 174 175 328 173)
5(299 176 177 329 175)
5(209 178 179 333 177)

60
(
300
302
303
358
359
356
355
357
353
352
354
350
349
351
347
346
348
344
343
345
341
340
342
338
337
339
335
334
336
332
331
333
329
328
330
326
325
327
323
322
324
320
319
321
317
316
318
314
313
315
311
310
312
308
307
309
305
304
306
301
)

)

// regionEdges
0()


// ************************************************************************* //
