/*--------------------------------*- C++ -*----------------------------------*\
| =========                 |                                                 |
| \\      /  F ield         | OpenFOAM: The Open Source CFD Toolbox           |
|  \\    /   O peration     | Version:  2106                                  |
|   \\  /    A nd           | Website:  www.openfoam.com                      |
|    \\/     M anipulation  |                                                 |
\*---------------------------------------------------------------------------*/
FoamFile
{
    version     2.0;
    format      ascii;
    arch        "LSB;label=32;scalar=64";
    class       featureEdgeMesh;
    location    "constant/triSurface";
    object      emptyPatch.eMesh;
}
// * * * * * * * * * * * * * * * * * * * * * * * * * * * * * * * * * * * * * //


// points:

450
(
(2 109.3076 61.53562)
(2 114.6771 60.37874)
(2 98.93909 2.296314)
(2 107.4485 0.8122623)
(2 114.6771 60.37874)
(2 120 60)
(2 98.56754 66.29656)
(2 103.9108 63.50302)
(2 74.21473 11.21843)
(2 82.28777 7.504731)
(2 103.9108 63.50302)
(2 109.3076 61.53562)
(2 82.28777 7.504731)
(2 90.53218 4.531682)
(2 90.53218 4.531682)
(2 98.93909 2.296314)
(2 130.0581 61.35815)
(2 135.2725 63.15164)
(2 150.3016 4.79646)
(2 158.6447 7.891893)
(2 135.2725 63.15164)
(2 140.4398 65.7109)
(2 107.4485 0.8122623)
(2 116.0179 0.08176267)
(2 116.0179 0.08176267)
(2 124.6138 0.1097322)
(2 120 60)
(2 124.8149 60.30972)
(2 124.6138 0.1097322)
(2 133.2458 0.9047836)
(2 124.8149 60.30972)
(2 130.0581 61.35815)
(2 133.2458 0.9047836)
(2 141.8138 2.464801)
(2 141.8138 2.464801)
(2 150.3016 4.79646)
(2 88.15718 74.48659)
(2 93.29014 69.95611)
(2 51.52771 26.66351)
(2 58.81372 20.79934)
(2 93.29014 69.95611)
(2 98.56754 66.29656)
(2 58.81372 20.79934)
(2 66.37669 15.65538)
(2 66.37669 15.65538)
(2 74.21473 11.21843)
(2 158.6447 7.891893)
(2 166.812 11.75131)
(2 166.812 11.75131)
(2 174.7697 16.37812)
(2 140.4398 65.7109)
(2 145.5545 69.07336)
(2 174.7697 16.37812)
(2 182.4629 21.7589)
(2 145.5545 69.07336)
(2 150.5554 73.25181)
(2 182.4629 21.7589)
(2 189.8488 27.88253)
(2 189.8488 27.88253)
(2 196.881 34.73192)
(2 150.5554 73.25181)
(2 155.3614 78.23564)
(2 196.881 34.73192)
(2 203.4992 42.26819)
(2 155.3614 78.23564)
(2 159.991 84.13365)
(2 78.67485 86.07457)
(2 83.24477 79.88646)
(2 31.71925 48.51203)
(2 37.95454 40.51062)
(2 83.24477 79.88646)
(2 88.15718 74.48659)
(2 37.95454 40.51062)
(2 44.5603 33.23829)
(2 44.5603 33.23829)
(2 51.52771 26.66351)
(2 203.4992 42.26819)
(2 206.3257 45.86885)
(2 206.3257 45.86885)
(2 212.3231 54.42397)
(2 159.991 84.13365)
(2 164.2606 90.80208)
(2 212.3231 54.42397)
(2 217.8245 63.63352)
(2 164.2606 90.80208)
(2 168.1402 98.25086)
(2 217.8245 63.63352)
(2 222.7961 73.47947)
(2 168.1402 98.25086)
(2 171.5622 106.4364)
(2 222.7961 73.47947)
(2 227.2044 83.94022)
(2 171.5622 106.4364)
(2 174.4799 115.3642)
(2 64.47969 119.2477)
(2 67.24168 109.8159)
(2 8.113146 97.89261)
(2 11.73092 86.79881)
(2 67.24168 109.8159)
(2 70.57726 101.1025)
(2 11.73092 86.79881)
(2 15.93526 76.293)
(2 70.57726 101.1025)
(2 74.41667 93.16844)
(2 15.93526 76.293)
(2 20.69257 66.39577)
(2 74.41667 93.16844)
(2 78.67485 86.07457)
(2 20.69257 66.39577)
(2 25.96961 57.12409)
(2 25.96961 57.12409)
(2 31.71925 48.51203)
(2 59.99999 157.5)
(2 60.09935 151.5148)
(2 0 157.5)
(2 0.2101064 147.4486)
(2 60.09935 151.5148)
(2 60.86046 140.1488)
(2 0.2101064 147.4486)
(2 1.137629 134.3563)
(2 60.86046 140.1488)
(2 62.33725 129.3687)
(2 1.137629 134.3563)
(2 2.782151 121.7131)
(2 62.33725 129.3687)
(2 64.47969 119.2477)
(2 2.782151 121.7131)
(2 5.117089 109.548)
(2 5.117089 109.548)
(2 8.113146 97.89261)
(2 227.2044 83.94022)
(2 231.0096 94.96947)
(2 231.0096 94.96947)
(2 234.181 106.5282)
(2 174.4799 115.3642)
(2 176.83 124.9814)
(2 234.181 106.5282)
(2 236.6909 118.5871)
(2 176.83 124.9814)
(2 178.561 135.2221)
(2 236.6909 118.5871)
(2 238.5134 131.1173)
(2 178.561 135.2221)
(2 179.6296 146.024)
(2 238.5134 131.1173)
(2 239.624 144.0893)
(2 179.6296 146.024)
(2 180 157.5)
(2 239.624 144.0893)
(2 240 157.5)
(0 114.6771 60.37874)
(0 109.3076 61.53562)
(0 98.93909 2.296314)
(0 90.53218 4.531682)
(0 109.3076 61.53562)
(0 103.9108 63.50302)
(0 124.8149 60.30972)
(0 120 60)
(0 124.6138 0.1097322)
(0 116.0179 0.08176267)
(0 120 60)
(0 114.6771 60.37874)
(0 116.0179 0.08176267)
(0 107.4485 0.8122623)
(0 107.4485 0.8122623)
(0 98.93909 2.296314)
(0 135.2725 63.15164)
(0 130.0581 61.35815)
(0 150.3016 4.79646)
(0 141.8138 2.464801)
(0 130.0581 61.35815)
(0 124.8149 60.30972)
(0 141.8138 2.464801)
(0 133.2458 0.9047836)
(0 133.2458 0.9047836)
(0 124.6138 0.1097322)
(0 90.53218 4.531682)
(0 82.28777 7.504731)
(0 82.28777 7.504731)
(0 74.21473 11.21843)
(0 103.9108 63.50302)
(0 98.56754 66.29656)
(0 74.21473 11.21843)
(0 66.37669 15.65538)
(0 98.56754 66.29656)
(0 93.29014 69.95611)
(0 145.5545 69.07336)
(0 140.4398 65.7109)
(0 174.7697 16.37812)
(0 166.812 11.75131)
(0 140.4398 65.7109)
(0 135.2725 63.15164)
(0 166.812 11.75131)
(0 158.6447 7.891893)
(0 158.6447 7.891893)
(0 150.3016 4.79646)
(0 66.37669 15.65538)
(0 58.81372 20.79934)
(0 58.81372 20.79934)
(0 51.52771 26.66351)
(0 93.29014 69.95611)
(0 88.15718 74.48659)
(0 51.52771 26.66351)
(0 44.5603 33.23829)
(0 88.15718 74.48659)
(0 83.24477 79.88646)
(0 155.3614 78.23564)
(0 150.5554 73.25181)
(0 196.881 34.73192)
(0 189.8488 27.88253)
(0 150.5554 73.25181)
(0 145.5545 69.07336)
(0 189.8488 27.88253)
(0 182.4629 21.7589)
(0 182.4629 21.7589)
(0 174.7697 16.37812)
(0 44.5603 33.23829)
(0 37.95454 40.51062)
(0 37.95454 40.51062)
(0 31.71925 48.51203)
(0 83.24477 79.88646)
(0 78.67485 86.07457)
(0 31.71925 48.51203)
(0 25.96961 57.12409)
(0 78.67485 86.07457)
(0 74.41667 93.16844)
(0 25.96961 57.12409)
(0 20.69257 66.39577)
(0 74.41667 93.16844)
(0 70.57726 101.1025)
(0 20.69257 66.39577)
(0 15.93526 76.293)
(0 70.57726 101.1025)
(0 67.24168 109.8159)
(0 164.2606 90.80208)
(0 159.991 84.13365)
(0 212.3231 54.42397)
(0 206.3257 45.86885)
(0 159.991 84.13365)
(0 155.3614 78.23564)
(0 206.3257 45.86885)
(0 203.4992 42.26819)
(0 203.4992 42.26819)
(0 196.881 34.73192)
(0 15.93526 76.293)
(0 11.73092 86.79881)
(0 11.73092 86.79881)
(0 8.113146 97.89261)
(0 67.24168 109.8159)
(0 64.47969 119.2477)
(0 8.113146 97.89261)
(0 5.117089 109.548)
(0 64.47969 119.2477)
(0 62.33725 129.3687)
(0 5.117089 109.548)
(0 2.782151 121.7131)
(0 62.33725 129.3687)
(0 60.86046 140.1488)
(0 2.782151 121.7131)
(0 1.137629 134.3563)
(0 60.86046 140.1488)
(0 60.09935 151.5148)
(0 1.137629 134.3563)
(0 0.2101064 147.4486)
(0 60.09935 151.5148)
(0 59.99999 157.5)
(0 0.2101064 147.4486)
(0 0 157.5)
(0 176.83 124.9814)
(0 174.4799 115.3642)
(0 234.181 106.5282)
(0 231.0096 94.96947)
(0 174.4799 115.3642)
(0 171.5622 106.4364)
(0 231.0096 94.96947)
(0 227.2044 83.94022)
(0 171.5622 106.4364)
(0 168.1402 98.25086)
(0 227.2044 83.94022)
(0 222.7961 73.47947)
(0 168.1402 98.25086)
(0 164.2606 90.80208)
(0 222.7961 73.47947)
(0 217.8245 63.63352)
(0 217.8245 63.63352)
(0 212.3231 54.42397)
(0 180 157.5)
(0 179.6296 146.024)
(0 240 157.5)
(0 239.624 144.0893)
(0 179.6296 146.024)
(0 178.561 135.2221)
(0 239.624 144.0893)
(0 238.5134 131.1173)
(0 178.561 135.2221)
(0 176.83 124.9814)
(0 238.5134 131.1173)
(0 236.6909 118.5871)
(0 236.6909 118.5871)
(0 234.181 106.5282)
(2 98.93909 2.296314)
(2 114.6771 60.37874)
(2 107.4485 0.8122623)
(2 74.21473 11.21843)
(2 103.9108 63.50302)
(2 82.28777 7.504731)
(2 109.3076 61.53562)
(2 109.3076 61.53562)
(2 150.3016 4.79646)
(2 135.2725 63.15164)
(2 158.6447 7.891893)
(2 120 60)
(2 120 60)
(2 124.6138 0.1097322)
(2 124.8149 60.30972)
(2 133.2458 0.9047836)
(2 130.0581 61.35815)
(2 130.0581 61.35815)
(2 51.52771 26.66351)
(2 93.29014 69.95611)
(2 58.81372 20.79934)
(2 98.56754 66.29656)
(2 98.56754 66.29656)
(2 140.4398 65.7109)
(2 140.4398 65.7109)
(2 174.7697 16.37812)
(2 145.5545 69.07336)
(2 182.4629 21.7589)
(2 150.5554 73.25181)
(2 150.5554 73.25181)
(2 196.881 34.73192)
(2 155.3614 78.23564)
(2 203.4992 42.26819)
(2 31.71925 48.51203)
(2 83.24477 79.88646)
(2 37.95454 40.51062)
(2 88.15718 74.48659)
(2 88.15718 74.48659)
(2 159.991 84.13365)
(2 159.991 84.13365)
(2 212.3231 54.42397)
(2 164.2606 90.80208)
(2 217.8245 63.63352)
(2 168.1402 98.25086)
(2 222.7961 73.47947)
(2 171.5622 106.4364)
(2 227.2044 83.94022)
(2 8.113146 97.89261)
(2 67.24168 109.8159)
(2 11.73092 86.79881)
(2 70.57726 101.1025)
(2 15.93526 76.293)
(2 74.41667 93.16844)
(2 20.69257 66.39577)
(2 78.67485 86.07457)
(2 78.67485 86.07457)
(2 0 157.5)
(2 60.09935 151.5148)
(2 0.2101064 147.4486)
(2 60.86046 140.1488)
(2 1.137629 134.3563)
(2 62.33725 129.3687)
(2 2.782151 121.7131)
(2 64.47969 119.2477)
(2 64.47969 119.2477)
(2 174.4799 115.3642)
(2 174.4799 115.3642)
(2 234.181 106.5282)
(2 176.83 124.9814)
(2 236.6909 118.5871)
(2 178.561 135.2221)
(2 238.5134 131.1173)
(2 179.6296 146.024)
(2 239.624 144.0893)
(2 180 157.5)
(0 98.93909 2.296314)
(0 109.3076 61.53562)
(0 90.53218 4.531682)
(0 124.6138 0.1097322)
(0 120 60)
(0 116.0179 0.08176267)
(0 114.6771 60.37874)
(0 114.6771 60.37874)
(0 150.3016 4.79646)
(0 130.0581 61.35815)
(0 141.8138 2.464801)
(0 124.8149 60.30972)
(0 124.8149 60.30972)
(0 103.9108 63.50302)
(0 103.9108 63.50302)
(0 74.21473 11.21843)
(0 98.56754 66.29656)
(0 66.37669 15.65538)
(0 174.7697 16.37812)
(0 140.4398 65.7109)
(0 166.812 11.75131)
(0 135.2725 63.15164)
(0 135.2725 63.15164)
(0 93.29014 69.95611)
(0 93.29014 69.95611)
(0 51.52771 26.66351)
(0 88.15718 74.48659)
(0 44.5603 33.23829)
(0 196.881 34.73192)
(0 150.5554 73.25181)
(0 189.8488 27.88253)
(0 145.5545 69.07336)
(0 145.5545 69.07336)
(0 83.24477 79.88646)
(0 83.24477 79.88646)
(0 31.71925 48.51203)
(0 78.67485 86.07457)
(0 25.96961 57.12409)
(0 74.41667 93.16844)
(0 20.69257 66.39577)
(0 70.57726 101.1025)
(0 15.93526 76.293)
(0 212.3231 54.42397)
(0 159.991 84.13365)
(0 206.3257 45.86885)
(0 155.3614 78.23564)
(0 155.3614 78.23564)
(0 67.24168 109.8159)
(0 67.24168 109.8159)
(0 8.113146 97.89261)
(0 64.47969 119.2477)
(0 5.117089 109.548)
(0 62.33725 129.3687)
(0 2.782151 121.7131)
(0 60.86046 140.1488)
(0 1.137629 134.3563)
(0 60.09935 151.5148)
(0 0.2101064 147.4486)
(0 59.99999 157.5)
(0 234.181 106.5282)
(0 174.4799 115.3642)
(0 231.0096 94.96947)
(0 171.5622 106.4364)
(0 227.2044 83.94022)
(0 168.1402 98.25086)
(0 222.7961 73.47947)
(0 164.2606 90.80208)
(0 164.2606 90.80208)
(0 240 157.5)
(0 179.6296 146.024)
(0 239.624 144.0893)
(0 178.561 135.2221)
(0 238.5134 131.1173)
(0 176.83 124.9814)
(0 176.83 124.9814)
)


// edges:

450
(
(0 300)
(300 1)
(1 0)
(301 2)
(2 3)
(3 301)
(4 302)
(302 5)
(5 4)
(6 303)
(303 7)
(7 6)
(304 8)
(8 9)
(9 304)
(10 305)
(305 11)
(11 10)
(306 12)
(12 13)
(13 306)
(307 14)
(14 15)
(15 307)
(16 308)
(308 17)
(17 16)
(309 18)
(18 19)
(19 309)
(20 310)
(310 21)
(21 20)
(22 23)
(23 311)
(311 22)
(312 24)
(24 25)
(25 312)
(26 313)
(313 27)
(27 26)
(314 28)
(28 29)
(29 314)
(30 315)
(315 31)
(31 30)
(316 32)
(32 33)
(33 316)
(317 34)
(34 35)
(35 317)
(36 318)
(318 37)
(37 36)
(319 38)
(38 39)
(39 319)
(40 320)
(320 41)
(41 40)
(321 42)
(42 43)
(43 321)
(322 44)
(44 45)
(45 322)
(46 47)
(47 323)
(323 46)
(324 48)
(48 49)
(49 324)
(50 325)
(325 51)
(51 50)
(326 52)
(52 53)
(53 326)
(54 327)
(327 55)
(55 54)
(56 57)
(57 328)
(328 56)
(329 58)
(58 59)
(59 329)
(60 330)
(330 61)
(61 60)
(331 62)
(62 63)
(63 331)
(64 332)
(332 65)
(65 64)
(66 333)
(333 67)
(67 66)
(334 68)
(68 69)
(69 334)
(70 335)
(335 71)
(71 70)
(336 72)
(72 73)
(73 336)
(337 74)
(74 75)
(75 337)
(76 77)
(77 338)
(338 76)
(339 78)
(78 79)
(79 339)
(80 340)
(340 81)
(81 80)
(341 82)
(82 83)
(83 341)
(84 342)
(342 85)
(85 84)
(343 86)
(86 87)
(87 343)
(88 344)
(344 89)
(89 88)
(345 90)
(90 91)
(91 345)
(92 346)
(346 93)
(93 92)
(94 347)
(347 95)
(95 94)
(348 96)
(96 97)
(97 348)
(98 349)
(349 99)
(99 98)
(350 100)
(100 101)
(101 350)
(102 351)
(351 103)
(103 102)
(352 104)
(104 105)
(105 352)
(106 353)
(353 107)
(107 106)
(354 108)
(108 109)
(109 354)
(355 110)
(110 111)
(111 355)
(112 356)
(356 113)
(113 112)
(357 114)
(114 115)
(115 357)
(116 358)
(358 117)
(117 116)
(359 118)
(118 119)
(119 359)
(120 360)
(360 121)
(121 120)
(361 122)
(122 123)
(123 361)
(124 362)
(362 125)
(125 124)
(363 126)
(126 127)
(127 363)
(364 128)
(128 129)
(129 364)
(130 131)
(131 365)
(365 130)
(366 132)
(132 133)
(133 366)
(134 367)
(367 135)
(135 134)
(368 136)
(136 137)
(137 368)
(138 369)
(369 139)
(139 138)
(370 140)
(140 141)
(141 370)
(142 371)
(371 143)
(143 142)
(372 144)
(144 145)
(145 372)
(146 373)
(373 147)
(147 146)
(374 148)
(148 149)
(149 374)
(150 375)
(375 151)
(151 150)
(376 152)
(152 153)
(153 376)
(154 377)
(377 155)
(155 154)
(156 378)
(378 157)
(157 156)
(379 158)
(158 159)
(159 379)
(160 380)
(380 161)
(161 160)
(381 162)
(162 163)
(163 381)
(382 164)
(164 165)
(165 382)
(166 383)
(383 167)
(167 166)
(384 168)
(168 169)
(169 384)
(170 385)
(385 171)
(171 170)
(386 172)
(172 173)
(173 386)
(387 174)
(174 175)
(175 387)
(176 177)
(177 388)
(388 176)
(389 178)
(178 179)
(179 389)
(180 390)
(390 181)
(181 180)
(391 182)
(182 183)
(183 391)
(184 392)
(392 185)
(185 184)
(186 393)
(393 187)
(187 186)
(394 188)
(188 189)
(189 394)
(190 395)
(395 191)
(191 190)
(396 192)
(192 193)
(193 396)
(397 194)
(194 195)
(195 397)
(196 197)
(197 398)
(398 196)
(399 198)
(198 199)
(199 399)
(200 400)
(400 201)
(201 200)
(401 202)
(202 203)
(203 401)
(204 402)
(402 205)
(205 204)
(206 403)
(403 207)
(207 206)
(404 208)
(208 209)
(209 404)
(210 405)
(405 211)
(211 210)
(406 212)
(212 213)
(213 406)
(407 214)
(214 215)
(215 407)
(216 217)
(217 408)
(408 216)
(409 218)
(218 219)
(219 409)
(220 410)
(410 221)
(221 220)
(411 222)
(222 223)
(223 411)
(224 412)
(412 225)
(225 224)
(413 226)
(226 227)
(227 413)
(228 414)
(414 229)
(229 228)
(415 230)
(230 231)
(231 415)
(232 416)
(416 233)
(233 232)
(234 417)
(417 235)
(235 234)
(418 236)
(236 237)
(237 418)
(238 419)
(419 239)
(239 238)
(420 240)
(240 241)
(241 420)
(421 242)
(242 243)
(243 421)
(244 245)
(245 422)
(422 244)
(423 246)
(246 247)
(247 423)
(248 424)
(424 249)
(249 248)
(425 250)
(250 251)
(251 425)
(252 426)
(426 253)
(253 252)
(427 254)
(254 255)
(255 427)
(256 428)
(428 257)
(257 256)
(429 258)
(258 259)
(259 429)
(260 430)
(430 261)
(261 260)
(431 262)
(262 263)
(263 431)
(264 432)
(432 265)
(265 264)
(433 266)
(266 267)
(267 433)
(268 434)
(434 269)
(269 268)
(435 270)
(270 271)
(271 435)
(272 436)
(436 273)
(273 272)
(437 274)
(274 275)
(275 437)
(276 438)
(438 277)
(277 276)
(439 278)
(278 279)
(279 439)
(280 440)
(440 281)
(281 280)
(441 282)
(282 283)
(283 441)
(442 284)
(284 285)
(285 442)
(286 443)
(443 287)
(287 286)
(444 288)
(288 289)
(289 444)
(290 445)
(445 291)
(291 290)
(446 292)
(292 293)
(293 446)
(294 447)
(447 295)
(295 294)
(448 296)
(296 297)
(297 448)
(449 298)
(298 299)
(299 449)
)

// * * * * * * * * * * * * * * * * * * * * * * * * * * * * * * * * * * * * * //


// ************************************************************************* //
