/*--------------------------------*- C++ -*----------------------------------*\
| =========                 |                                                 |
| \\      /  F ield         | OpenFOAM: The Open Source CFD Toolbox           |
|  \\    /   O peration     | Version:  2106                                  |
|   \\  /    A nd           | Website:  www.openfoam.com                      |
|    \\/     M anipulation  |                                                 |
\*---------------------------------------------------------------------------*/
FoamFile
{
    version     2.0;
    format      ascii;
    arch        "LSB;label=32;scalar=64";
    class       featureEdgeMesh;
    location    "constant/triSurface";
    object      wall.eMesh;
}
// * * * * * * * * * * * * * * * * * * * * * * * * * * * * * * * * * * * * * //


// points:

272
(
(29.967134 0 1.40386)
(30 0 0)
(29.983627 0 -0.990991)
(29.934439 0 -1.982265)
(248.423615 0.659052 0)
(248.390747 0.65833 1.40386)
(248.358063 0.657612 -1.982265)
(248.407242 0.658692 -0.990991)
(29.868361 0 2.807314)
(29.703548 0 4.207046)
(29.472752 0 5.599729)
(29.176208 0 6.982041)
(28.814341 0 8.350675)
(28.387753 0 9.702347)
(27.897223 0 11.033809)
(27.34371 0 12.341862)
(26.728338 0 13.623362)
(26.052401 0 14.875228)
(25.317354 0 16.09446)
(24.524805 0 17.278133)
(23.676517 0 18.423424)
(22.774391 0 19.527599)
(21.820465 0 20.588037)
(20.816914 0 21.602224)
(19.766024 0 22.56777)
(18.670206 0 23.482405)
(17.531977 0 24.34399)
(16.353947 0 25.150517)
(15.138826 0 25.900114)
(13.889409 0 26.591057)
(12.608563 0 27.221758)
(11.299229 0 27.790779)
(9.964405 0 28.296831)
(8.607148 0 28.738771)
(7.230559 0 29.115614)
(5.837777 0 29.426525)
(4.431973 0 29.67082)
(3.016345 0 29.847977)
(1.594102 0 29.957617)
(0.168469 0 29.999527)
(-1.257333 0 29.97364)
(-2.680081 0 29.880047)
(-4.096569 0 29.718987)
(-5.503606 0 29.49085)
(-6.898028 0 29.196184)
(-8.276701 0 28.835676)
(-9.636531 0 28.410162)
(-10.974466 0 27.920622)
(-12.28751 0 27.368177)
(-13.572719 0 26.754089)
(-14.827215 0 26.079756)
(-16.048191 0 25.346708)
(-19.483074 0 22.812492)
(-18.378729 0 23.711227)
(-20.543478 0 21.862423)
(-21.557566 0 20.863157)
(-22.523066 0 19.81695)
(-23.437817 0 18.726152)
(-24.299765 0 17.59322)
(-25.106983 0 16.420702)
(-25.857656 0 15.211232)
(-26.550102 0 13.967535)
(-27.182768 0 12.692404)
(-27.75423 0 11.38871)
(-28.263206 0 10.059383)
(-28.708551 0 8.707416)
(-29.089264 0 7.335849)
(-29.40449 0 5.94777)
(-29.653519 0 4.546302)
(-29.835789 0 3.1346)
(-29.950891 0 1.715841)
(-29.998568 0 0.293219)
(-29.978708 0 -1.130062)
(-29.891359 0 -2.5508)
(-29.736719 0 -3.965796)
(-29.515133 0 -5.371863)
(-29.2271 0 -6.765839)
(-28.87327 0 -8.144584)
(-28.454437 0 -9.504996)
(-27.971544 0 -10.844015)
(-27.425678 0 -12.158628)
(-26.818062 0 -13.445876)
(-26.150061 0 -14.702867)
(-25.423178 0 -15.92677)
(-23.799414 0 -18.264389)
(-24.639042 0 -17.114836)
(-22.906174 0 -19.372849)
(-21.961325 0 -20.437716)
(-20.966984 0 -21.456598)
(-19.925379 0 -22.4272)
(-18.83884 0 -23.347336)
(-17.709805 0 -24.21493)
(-16.540792 0 -25.028027)
(-15.334427 0 -25.78479)
(-14.093403 0 -26.483503)
(-12.820502 0 -27.122587)
(-11.518573 0 -27.700586)
(-10.190532 0 -28.216185)
(-8.839355 0 -28.668201)
(-7.468072 0 -29.055599)
(-6.079761 0 -29.377483)
(-4.677539 0 -29.633101)
(-3.264559 0 -29.821848)
(-1.844002 0 -29.943274)
(-0.419069 0 -29.997072)
(10.752249 0 -28.006948)
(9.40781 0 -28.486717)
(12.07245 0 -27.46372)
(13.365392 0 -26.858263)
(14.628108 0 -26.191954)
(15.8577 0 -25.466318)
(17.051342 0 -24.683025)
(18.206291 0 -23.843887)
(19.319891 0 -22.950855)
(20.389587 0 -22.006016)
(21.412926 0 -21.011583)
(22.387564 0 -19.969902)
(23.311285 0 -18.883432)
(24.18199 0 -17.754755)
(24.997723 0 -16.586557)
(25.756662 0 -15.381624)
(26.457134 0 -14.142843)
(27.097624 0 -12.873182)
(27.676765 0 -11.575691)
(28.193367 0 -10.253488)
(28.646402 0 -8.909751)
(29.035015 0 -7.547709)
(29.35853 0 -6.170632)
(29.616451 0 -4.781819)
(29.808464 0 -3.384588)
(248.291992 0.65616 2.807314)
(248.127228 0.652539 4.207046)
(247.896484 0.647469 5.599729)
(247.600006 0.640955 6.982041)
(247.238235 0.633005 8.350675)
(246.811752 0.623634 9.702347)
(246.321335 0.612857 11.033809)
(245.76796 0.600698 12.341862)
(245.15274 0.587179 13.623362)
(244.476959 0.57233 14.875228)
(243.742096 0.556182 16.09446)
(242.949738 0.538771 17.278133)
(242.101654 0.520135 18.423424)
(241.199738 0.500317 19.527599)
(240.246048 0.479361 20.588037)
(239.242737 0.457314 21.602224)
(238.192108 0.434228 22.56777)
(237.096542 0.410155 23.482405)
(235.958588 0.385149 24.34399)
(234.780853 0.35927 25.150517)
(233.566025 0.332576 25.900114)
(232.31691 0.305128 26.591057)
(231.036362 0.27699 27.221758)
(229.727356 0.248226 27.790779)
(228.392853 0.218902 28.296831)
(227.035919 0.189085 28.738771)
(225.659668 0.158844 29.115614)
(224.267212 0.128247 29.426525)
(222.861755 0.097363 29.67082)
(221.446457 0.066264 29.847977)
(220.024567 0.03502 29.957617)
(218.599274 0.003701 29.999527)
(217.173813 -0.027622 29.97364)
(215.751419 -0.058877 29.880047)
(214.335266 -0.089995 29.718987)
(212.928574 -0.120905 29.49085)
(211.534485 -0.151539 29.196184)
(210.156143 -0.181826 28.835676)
(208.796646 -0.211699 28.410162)
(207.45903 -0.241091 27.920622)
(206.146301 -0.269937 27.368177)
(204.861404 -0.298171 26.754089)
(203.607208 -0.32573 26.079756)
(202.386536 -0.352553 25.346708)
(201.202087 -0.378579 24.556602)
(200.056549 -0.403751 23.711227)
(198.952469 -0.428012 22.812492)
(197.892334 -0.451307 21.862423)
(196.878479 -0.473585 20.863157)
(195.913223 -0.494796 19.81695)
(194.998688 -0.514891 18.726152)
(194.136948 -0.533827 17.59322)
(193.329926 -0.55156 16.420702)
(192.579437 -0.568051 15.211232)
(191.887146 -0.583263 13.967535)
(191.254639 -0.597162 12.692404)
(190.683319 -0.609716 11.38871)
(190.174469 -0.620897 10.059383)
(189.729218 -0.630681 8.707416)
(189.348602 -0.639045 7.335849)
(189.033447 -0.64597 5.94777)
(188.784485 -0.65144 4.546302)
(188.602264 -0.655445 3.1346)
(188.487183 -0.657973 1.715841)
(188.439514 -0.659021 0.293219)
(188.459366 -0.658584 -1.130062)
(188.546707 -0.656665 -2.5508)
(188.701309 -0.653268 -3.965796)
(188.922836 -0.6484 -5.371863)
(189.2108 -0.642073 -6.765839)
(189.564545 -0.6343 -8.144584)
(189.983276 -0.625098 -9.504996)
(190.466049 -0.61449 -10.844015)
(191.011795 -0.602498 -12.158628)
(191.619263 -0.58915 -13.445876)
(192.287094 -0.574475 -14.702867)
(193.013809 -0.558507 -15.92677)
(193.797745 -0.54128 -17.114836)
(194.637177 -0.522835 -18.264389)
(195.530197 -0.503212 -19.372849)
(196.474823 -0.482455 -20.437716)
(197.468918 -0.460611 -21.456598)
(198.510284 -0.437729 -22.4272)
(199.596558 -0.413859 -23.347336)
(200.725311 -0.389056 -24.21493)
(201.894043 -0.363375 -25.028027)
(203.100128 -0.336873 -25.78479)
(204.340851 -0.30961 -26.483503)
(205.613434 -0.281646 -27.122587)
(206.915054 -0.253045 -27.700586)
(208.242767 -0.22387 -28.216185)
(209.593628 -0.194186 -28.668201)
(210.964584 -0.164062 -29.055599)
(212.352554 -0.133563 -29.377483)
(213.75444 -0.102758 -29.633101)
(215.167068 -0.071717 -29.821848)
(216.587296 -0.04051 -29.943274)
(218.011887 -0.009206 -29.997072)
(219.437622 0.022123 -29.983093)
(220.861313 0.053406 -29.901337)
(222.279709 0.084574 -29.751959)
(223.689621 0.115555 -29.535267)
(225.087814 0.146278 -29.251726)
(226.471115 0.176675 -28.901953)
(227.83638 0.206675 -28.486717)
(229.180496 0.23621 -28.006948)
(230.500381 0.265212 -27.46372)
(231.793015 0.293616 -26.858263)
(233.05542 0.321356 -26.191954)
(234.284714 0.348368 -25.466318)
(235.478073 0.374591 -24.683025)
(236.632751 0.399963 -23.843887)
(237.746078 0.424427 -22.950855)
(238.815521 0.447927 -22.006016)
(239.838608 0.470408 -21.011583)
(240.813004 0.491819 -19.969902)
(241.736511 0.512112 -18.883432)
(242.606995 0.53124 -17.754755)
(243.422531 0.54916 -16.586557)
(244.18129 0.565833 -15.381624)
(244.881592 0.581221 -14.142843)
(245.521927 0.595291 -12.873182)
(246.100937 0.608014 -11.575691)
(246.617416 0.619363 -10.253488)
(247.070343 0.629316 -8.909751)
(247.458862 0.637853 -7.547709)
(247.782288 0.64496 -6.170632)
(248.040146 0.650626 -4.781819)
(248.232117 0.654844 -3.384588)
(-17.232912 0 24.556602)
(1.007025 0 -29.983093)
(2.431055 0 -29.901337)
(3.849798 0 -29.751959)
(5.260037 0 -29.535267)
(6.658569 0 -29.251726)
(8.042212 0 -28.901953)
(71.468796 47.559616 1.936405)
(71.497055 47.675961 2.903965)
(71.625191 47.797169 4.35144)
(71.625191 47.797169 -4.35144)
(71.497055 47.675961 -2.903965)
(71.468796 47.559616 -1.936405)
)


// edges:

270
(
(266 267)
(268 267)
(269 270)
(270 271)
(0 1)
(2 3)
(1 2)
(4 5)
(6 7)
(7 4)
(8 0)
(9 8)
(10 9)
(11 10)
(12 11)
(13 12)
(14 13)
(15 14)
(16 15)
(17 16)
(18 17)
(19 18)
(20 19)
(21 20)
(22 21)
(23 22)
(24 23)
(25 24)
(26 25)
(27 26)
(28 27)
(29 28)
(30 29)
(31 30)
(32 31)
(33 32)
(34 33)
(35 34)
(36 35)
(37 36)
(38 37)
(39 38)
(40 39)
(41 40)
(42 41)
(43 42)
(44 43)
(45 44)
(46 45)
(47 46)
(48 47)
(49 48)
(50 49)
(51 50)
(52 53)
(54 52)
(55 54)
(56 55)
(57 56)
(58 57)
(59 58)
(60 59)
(61 60)
(62 61)
(63 62)
(64 63)
(65 64)
(66 65)
(67 66)
(68 67)
(69 68)
(70 69)
(71 70)
(72 71)
(73 72)
(74 73)
(75 74)
(76 75)
(77 76)
(78 77)
(79 78)
(80 79)
(81 80)
(82 81)
(83 82)
(84 85)
(85 83)
(86 84)
(87 86)
(88 87)
(89 88)
(90 89)
(91 90)
(92 91)
(93 92)
(94 93)
(95 94)
(96 95)
(97 96)
(98 97)
(99 98)
(100 99)
(101 100)
(102 101)
(103 102)
(104 103)
(105 106)
(107 105)
(108 107)
(109 108)
(110 109)
(111 110)
(112 111)
(113 112)
(114 113)
(115 114)
(116 115)
(117 116)
(118 117)
(119 118)
(120 119)
(121 120)
(122 121)
(123 122)
(124 123)
(125 124)
(126 125)
(127 126)
(128 127)
(129 128)
(3 129)
(5 130)
(130 131)
(131 132)
(132 133)
(133 134)
(134 135)
(135 136)
(136 137)
(137 138)
(138 139)
(139 140)
(140 141)
(141 142)
(142 143)
(143 144)
(144 145)
(145 146)
(146 147)
(147 148)
(148 149)
(149 150)
(150 151)
(151 152)
(152 153)
(153 154)
(154 155)
(155 156)
(156 157)
(157 158)
(158 159)
(159 160)
(160 161)
(161 162)
(162 163)
(163 164)
(164 165)
(165 166)
(166 167)
(167 168)
(168 169)
(169 170)
(170 171)
(171 172)
(172 173)
(173 174)
(174 175)
(175 176)
(176 177)
(177 178)
(178 179)
(179 180)
(180 181)
(181 182)
(182 183)
(183 184)
(184 185)
(185 186)
(186 187)
(187 188)
(188 189)
(189 190)
(190 191)
(191 192)
(192 193)
(193 194)
(194 195)
(195 196)
(196 197)
(197 198)
(198 199)
(199 200)
(200 201)
(201 202)
(202 203)
(203 204)
(204 205)
(205 206)
(206 207)
(207 208)
(208 209)
(209 210)
(210 211)
(211 212)
(212 213)
(213 214)
(214 215)
(215 216)
(216 217)
(217 218)
(218 219)
(219 220)
(220 221)
(221 222)
(222 223)
(223 224)
(224 225)
(225 226)
(226 227)
(227 228)
(228 229)
(229 230)
(230 231)
(231 232)
(232 233)
(233 234)
(234 235)
(235 236)
(236 237)
(237 238)
(238 239)
(239 240)
(240 241)
(241 242)
(242 243)
(243 244)
(244 245)
(245 246)
(246 247)
(247 248)
(248 249)
(249 250)
(250 251)
(251 252)
(252 253)
(253 254)
(254 255)
(255 256)
(256 257)
(257 258)
(258 6)
(259 51)
(53 259)
(260 104)
(261 260)
(262 261)
(263 262)
(264 263)
(265 264)
(106 265)
)

// * * * * * * * * * * * * * * * * * * * * * * * * * * * * * * * * * * * * * //


// ************************************************************************* //
