/*--------------------------------*- C++ -*----------------------------------*\
| =========                 |                                                 |
| \\      /  F ield         | OpenFOAM: The Open Source CFD Toolbox           |
|  \\    /   O peration     | Version:  2106                                  |
|   \\  /    A nd           | Website:  www.openfoam.com                      |
|    \\/     M anipulation  |                                                 |
\*---------------------------------------------------------------------------*/
FoamFile
{
    version     2.0;
    format      ascii;
    arch        "LSB;label=32;scalar=64";
    class       featureEdgeMesh;
    location    "constant/triSurface";
    object      wall.eMesh;
}
// * * * * * * * * * * * * * * * * * * * * * * * * * * * * * * * * * * * * * //


// points:

450
(
(0 240 157.5)
(2 240 157.5)
(2 239.624 144.0893)
(0 239.624 144.0893)
(0 239.624 144.0893)
(2 239.624 144.0893)
(2 238.5134 131.1173)
(0 238.5134 131.1173)
(0 238.5134 131.1173)
(2 238.5134 131.1173)
(2 236.6909 118.5871)
(0 236.6909 118.5871)
(0 236.6909 118.5871)
(2 236.6909 118.5871)
(2 234.181 106.5282)
(0 234.181 106.5282)
(0 234.181 106.5282)
(2 234.181 106.5282)
(2 231.0096 94.96947)
(0 231.0096 94.96947)
(0 231.0096 94.96947)
(2 231.0096 94.96947)
(2 227.2044 83.94022)
(0 227.2044 83.94022)
(0 227.2044 83.94022)
(2 227.2044 83.94022)
(2 222.7961 73.47947)
(0 222.7961 73.47947)
(0 222.7961 73.47947)
(2 222.7961 73.47947)
(2 217.8245 63.63352)
(0 217.8245 63.63352)
(0 217.8245 63.63352)
(2 217.8245 63.63352)
(2 212.3231 54.42397)
(0 212.3231 54.42397)
(0 212.3231 54.42397)
(2 212.3231 54.42397)
(2 206.3257 45.86885)
(0 206.3257 45.86885)
(0 206.3257 45.86885)
(2 206.3257 45.86885)
(2 203.4992 42.26819)
(0 203.4992 42.26819)
(0 203.4992 42.26819)
(2 203.4992 42.26819)
(2 196.881 34.73192)
(0 196.881 34.73192)
(0 196.881 34.73192)
(2 196.881 34.73192)
(2 189.8488 27.88253)
(0 189.8488 27.88253)
(0 189.8488 27.88253)
(2 189.8488 27.88253)
(2 182.4629 21.7589)
(0 182.4629 21.7589)
(0 182.4629 21.7589)
(2 182.4629 21.7589)
(2 174.7697 16.37812)
(0 174.7697 16.37812)
(0 174.7697 16.37812)
(2 174.7697 16.37812)
(2 166.812 11.75131)
(0 166.812 11.75131)
(0 166.812 11.75131)
(2 166.812 11.75131)
(2 158.6447 7.891893)
(0 158.6447 7.891893)
(0 158.6447 7.891893)
(2 158.6447 7.891893)
(2 150.3016 4.79646)
(0 150.3016 4.79646)
(0 150.3016 4.79646)
(2 150.3016 4.79646)
(2 141.8138 2.464801)
(0 141.8138 2.464801)
(0 141.8138 2.464801)
(2 141.8138 2.464801)
(2 133.2458 0.9047836)
(0 133.2458 0.9047836)
(0 133.2458 0.9047836)
(2 133.2458 0.9047836)
(2 124.6138 0.1097322)
(0 124.6138 0.1097322)
(0 124.6138 0.1097322)
(2 124.6138 0.1097322)
(2 116.0179 0.08176267)
(0 116.0179 0.08176267)
(0 116.0179 0.08176267)
(2 116.0179 0.08176267)
(2 107.4485 0.8122623)
(0 107.4485 0.8122623)
(0 107.4485 0.8122623)
(2 107.4485 0.8122623)
(2 98.93909 2.296314)
(0 98.93909 2.296314)
(0 98.93909 2.296314)
(2 98.93909 2.296314)
(2 90.53218 4.531682)
(0 90.53218 4.531682)
(0 90.53218 4.531682)
(2 90.53218 4.531682)
(2 82.28777 7.504731)
(0 82.28777 7.504731)
(0 82.28777 7.504731)
(2 82.28777 7.504731)
(2 74.21473 11.21843)
(0 74.21473 11.21843)
(0 74.21473 11.21843)
(2 74.21473 11.21843)
(2 66.37669 15.65538)
(0 66.37669 15.65538)
(0 66.37669 15.65538)
(2 66.37669 15.65538)
(2 58.81372 20.79934)
(0 58.81372 20.79934)
(0 58.81372 20.79934)
(2 58.81372 20.79934)
(2 51.52771 26.66351)
(0 51.52771 26.66351)
(0 51.52771 26.66351)
(2 51.52771 26.66351)
(2 44.5603 33.23829)
(0 44.5603 33.23829)
(0 44.5603 33.23829)
(2 44.5603 33.23829)
(2 37.95454 40.51062)
(0 37.95454 40.51062)
(0 37.95454 40.51062)
(2 37.95454 40.51062)
(2 31.71925 48.51203)
(0 31.71925 48.51203)
(0 31.71925 48.51203)
(2 31.71925 48.51203)
(2 25.96961 57.12409)
(0 25.96961 57.12409)
(0 25.96961 57.12409)
(2 25.96961 57.12409)
(2 20.69257 66.39577)
(0 20.69257 66.39577)
(0 20.69257 66.39577)
(2 20.69257 66.39577)
(2 15.93526 76.293)
(0 15.93526 76.293)
(0 15.93526 76.293)
(2 15.93526 76.293)
(2 11.73092 86.79881)
(0 11.73092 86.79881)
(0 11.73092 86.79881)
(2 11.73092 86.79881)
(2 8.113146 97.89261)
(0 8.113146 97.89261)
(0 8.113146 97.89261)
(2 8.113146 97.89261)
(2 5.117089 109.548)
(0 5.117089 109.548)
(0 5.117089 109.548)
(2 5.117089 109.548)
(2 2.782151 121.7131)
(0 2.782151 121.7131)
(0 2.782151 121.7131)
(2 2.782151 121.7131)
(2 1.137629 134.3563)
(0 1.137629 134.3563)
(0 1.137629 134.3563)
(2 1.137629 134.3563)
(2 0.2101064 147.4486)
(0 0.2101064 147.4486)
(0 0.2101064 147.4486)
(2 0.2101064 147.4486)
(2 0 157.5)
(0 0 157.5)
(2 180 157.5)
(0 180 157.5)
(0 179.6296 146.024)
(2 179.6296 146.024)
(2 179.6296 146.024)
(0 179.6296 146.024)
(0 178.561 135.2221)
(2 178.561 135.2221)
(2 178.561 135.2221)
(0 178.561 135.2221)
(0 176.83 124.9814)
(2 176.83 124.9814)
(2 176.83 124.9814)
(0 176.83 124.9814)
(0 174.4799 115.3642)
(2 174.4799 115.3642)
(2 174.4799 115.3642)
(0 174.4799 115.3642)
(0 171.5622 106.4364)
(2 171.5622 106.4364)
(2 171.5622 106.4364)
(0 171.5622 106.4364)
(0 168.1402 98.25086)
(2 168.1402 98.25086)
(2 168.1402 98.25086)
(0 168.1402 98.25086)
(0 164.2606 90.80208)
(2 164.2606 90.80208)
(2 164.2606 90.80208)
(0 164.2606 90.80208)
(0 159.991 84.13365)
(2 159.991 84.13365)
(2 159.991 84.13365)
(0 159.991 84.13365)
(0 155.3614 78.23564)
(2 155.3614 78.23564)
(2 155.3614 78.23564)
(0 155.3614 78.23564)
(0 150.5554 73.25181)
(2 150.5554 73.25181)
(2 150.5554 73.25181)
(0 150.5554 73.25181)
(0 145.5545 69.07336)
(2 145.5545 69.07336)
(2 145.5545 69.07336)
(0 145.5545 69.07336)
(0 140.4398 65.7109)
(2 140.4398 65.7109)
(2 140.4398 65.7109)
(0 140.4398 65.7109)
(0 135.2725 63.15164)
(2 135.2725 63.15164)
(2 135.2725 63.15164)
(0 135.2725 63.15164)
(0 130.0581 61.35815)
(2 130.0581 61.35815)
(2 130.0581 61.35815)
(0 130.0581 61.35815)
(0 124.8149 60.30972)
(2 124.8149 60.30972)
(2 124.8149 60.30972)
(0 124.8149 60.30972)
(0 120 60)
(2 120 60)
(2 120 60)
(0 120 60)
(0 114.6771 60.37874)
(2 114.6771 60.37874)
(2 114.6771 60.37874)
(0 114.6771 60.37874)
(0 109.3076 61.53562)
(2 109.3076 61.53562)
(2 109.3076 61.53562)
(0 109.3076 61.53562)
(0 103.9108 63.50302)
(2 103.9108 63.50302)
(2 103.9108 63.50302)
(0 103.9108 63.50302)
(0 98.56754 66.29656)
(2 98.56754 66.29656)
(2 98.56754 66.29656)
(0 98.56754 66.29656)
(0 93.29014 69.95611)
(2 93.29014 69.95611)
(2 93.29014 69.95611)
(0 93.29014 69.95611)
(0 88.15718 74.48659)
(2 88.15718 74.48659)
(2 88.15718 74.48659)
(0 88.15718 74.48659)
(0 83.24477 79.88646)
(2 83.24477 79.88646)
(2 83.24477 79.88646)
(0 83.24477 79.88646)
(0 78.67485 86.07457)
(2 78.67485 86.07457)
(2 78.67485 86.07457)
(0 78.67485 86.07457)
(0 74.41667 93.16844)
(2 74.41667 93.16844)
(2 74.41667 93.16844)
(0 74.41667 93.16844)
(0 70.57726 101.1025)
(2 70.57726 101.1025)
(2 70.57726 101.1025)
(0 70.57726 101.1025)
(0 67.24168 109.8159)
(2 67.24168 109.8159)
(2 67.24168 109.8159)
(0 67.24168 109.8159)
(0 64.47969 119.2477)
(2 64.47969 119.2477)
(2 64.47969 119.2477)
(0 64.47969 119.2477)
(0 62.33725 129.3687)
(2 62.33725 129.3687)
(2 62.33725 129.3687)
(0 62.33725 129.3687)
(0 60.86046 140.1488)
(2 60.86046 140.1488)
(2 60.86046 140.1488)
(0 60.86046 140.1488)
(0 60.09935 151.5148)
(2 60.09935 151.5148)
(2 60.09935 151.5148)
(0 60.09935 151.5148)
(0 59.99999 157.5)
(2 59.99999 157.5)
(2 239.624 144.0893)
(0 240 157.5)
(2 238.5134 131.1173)
(0 239.624 144.0893)
(2 236.6909 118.5871)
(0 238.5134 131.1173)
(2 234.181 106.5282)
(0 236.6909 118.5871)
(2 231.0096 94.96947)
(0 234.181 106.5282)
(2 227.2044 83.94022)
(0 231.0096 94.96947)
(2 222.7961 73.47947)
(0 227.2044 83.94022)
(2 217.8245 63.63352)
(0 222.7961 73.47947)
(2 212.3231 54.42397)
(0 217.8245 63.63352)
(2 206.3257 45.86885)
(0 212.3231 54.42397)
(2 203.4992 42.26819)
(0 206.3257 45.86885)
(2 196.881 34.73192)
(0 203.4992 42.26819)
(2 189.8488 27.88253)
(0 196.881 34.73192)
(2 182.4629 21.7589)
(0 189.8488 27.88253)
(2 174.7697 16.37812)
(0 182.4629 21.7589)
(2 166.812 11.75131)
(0 174.7697 16.37812)
(2 158.6447 7.891893)
(0 166.812 11.75131)
(2 150.3016 4.79646)
(0 158.6447 7.891893)
(2 141.8138 2.464801)
(0 150.3016 4.79646)
(2 133.2458 0.9047836)
(0 141.8138 2.464801)
(2 124.6138 0.1097322)
(0 133.2458 0.9047836)
(2 116.0179 0.08176267)
(0 124.6138 0.1097322)
(2 107.4485 0.8122623)
(0 116.0179 0.08176267)
(2 98.93909 2.296314)
(0 107.4485 0.8122623)
(2 90.53218 4.531682)
(0 98.93909 2.296314)
(2 82.28777 7.504731)
(0 90.53218 4.531682)
(2 74.21473 11.21843)
(0 82.28777 7.504731)
(2 66.37669 15.65538)
(0 74.21473 11.21843)
(2 58.81372 20.79934)
(0 66.37669 15.65538)
(2 51.52771 26.66351)
(0 58.81372 20.79934)
(2 44.5603 33.23829)
(0 51.52771 26.66351)
(2 37.95454 40.51062)
(0 44.5603 33.23829)
(2 31.71925 48.51203)
(0 37.95454 40.51062)
(2 25.96961 57.12409)
(0 31.71925 48.51203)
(2 20.69257 66.39577)
(0 25.96961 57.12409)
(2 15.93526 76.293)
(0 20.69257 66.39577)
(2 11.73092 86.79881)
(0 15.93526 76.293)
(2 8.113146 97.89261)
(0 11.73092 86.79881)
(2 5.117089 109.548)
(0 8.113146 97.89261)
(2 2.782151 121.7131)
(0 5.117089 109.548)
(2 1.137629 134.3563)
(0 2.782151 121.7131)
(2 0.2101064 147.4486)
(0 1.137629 134.3563)
(2 0 157.5)
(0 0.2101064 147.4486)
(0 179.6296 146.024)
(2 180 157.5)
(0 178.561 135.2221)
(2 179.6296 146.024)
(0 176.83 124.9814)
(2 178.561 135.2221)
(0 174.4799 115.3642)
(2 176.83 124.9814)
(0 171.5622 106.4364)
(2 174.4799 115.3642)
(0 168.1402 98.25086)
(2 171.5622 106.4364)
(0 164.2606 90.80208)
(2 168.1402 98.25086)
(0 159.991 84.13365)
(2 164.2606 90.80208)
(0 155.3614 78.23564)
(2 159.991 84.13365)
(0 150.5554 73.25181)
(2 155.3614 78.23564)
(0 145.5545 69.07336)
(2 150.5554 73.25181)
(0 140.4398 65.7109)
(2 145.5545 69.07336)
(0 135.2725 63.15164)
(2 140.4398 65.7109)
(0 130.0581 61.35815)
(2 135.2725 63.15164)
(0 124.8149 60.30972)
(2 130.0581 61.35815)
(0 120 60)
(2 124.8149 60.30972)
(0 114.6771 60.37874)
(2 120 60)
(0 109.3076 61.53562)
(2 114.6771 60.37874)
(0 103.9108 63.50302)
(2 109.3076 61.53562)
(0 98.56754 66.29656)
(2 103.9108 63.50302)
(0 93.29014 69.95611)
(2 98.56754 66.29656)
(0 88.15718 74.48659)
(2 93.29014 69.95611)
(0 83.24477 79.88646)
(2 88.15718 74.48659)
(0 78.67485 86.07457)
(2 83.24477 79.88646)
(0 74.41667 93.16844)
(2 78.67485 86.07457)
(0 70.57726 101.1025)
(2 74.41667 93.16844)
(0 67.24168 109.8159)
(2 70.57726 101.1025)
(0 64.47969 119.2477)
(2 67.24168 109.8159)
(0 62.33725 129.3687)
(2 64.47969 119.2477)
(0 60.86046 140.1488)
(2 62.33725 129.3687)
(0 60.09935 151.5148)
(2 60.86046 140.1488)
(0 59.99999 157.5)
(2 60.09935 151.5148)
)


// edges:

450
(
(0 1)
(1 300)
(300 0)
(301 2)
(2 3)
(3 301)
(4 5)
(5 302)
(302 4)
(303 6)
(6 7)
(7 303)
(8 9)
(9 304)
(304 8)
(305 10)
(10 11)
(11 305)
(12 13)
(13 306)
(306 12)
(307 14)
(14 15)
(15 307)
(16 17)
(17 308)
(308 16)
(309 18)
(18 19)
(19 309)
(20 21)
(21 310)
(310 20)
(311 22)
(22 23)
(23 311)
(24 25)
(25 312)
(312 24)
(313 26)
(26 27)
(27 313)
(28 29)
(29 314)
(314 28)
(315 30)
(30 31)
(31 315)
(32 33)
(33 316)
(316 32)
(317 34)
(34 35)
(35 317)
(36 37)
(37 318)
(318 36)
(319 38)
(38 39)
(39 319)
(40 41)
(41 320)
(320 40)
(321 42)
(42 43)
(43 321)
(44 45)
(45 322)
(322 44)
(323 46)
(46 47)
(47 323)
(48 49)
(49 324)
(324 48)
(325 50)
(50 51)
(51 325)
(52 53)
(53 326)
(326 52)
(327 54)
(54 55)
(55 327)
(56 57)
(57 328)
(328 56)
(329 58)
(58 59)
(59 329)
(60 61)
(61 330)
(330 60)
(331 62)
(62 63)
(63 331)
(64 65)
(65 332)
(332 64)
(333 66)
(66 67)
(67 333)
(68 69)
(69 334)
(334 68)
(335 70)
(70 71)
(71 335)
(72 73)
(73 336)
(336 72)
(337 74)
(74 75)
(75 337)
(76 77)
(77 338)
(338 76)
(339 78)
(78 79)
(79 339)
(80 81)
(81 340)
(340 80)
(341 82)
(82 83)
(83 341)
(84 85)
(85 342)
(342 84)
(343 86)
(86 87)
(87 343)
(88 89)
(89 344)
(344 88)
(345 90)
(90 91)
(91 345)
(92 93)
(93 346)
(346 92)
(347 94)
(94 95)
(95 347)
(96 97)
(97 348)
(348 96)
(349 98)
(98 99)
(99 349)
(100 101)
(101 350)
(350 100)
(351 102)
(102 103)
(103 351)
(104 105)
(105 352)
(352 104)
(353 106)
(106 107)
(107 353)
(108 109)
(109 354)
(354 108)
(355 110)
(110 111)
(111 355)
(112 113)
(113 356)
(356 112)
(357 114)
(114 115)
(115 357)
(116 117)
(117 358)
(358 116)
(359 118)
(118 119)
(119 359)
(120 121)
(121 360)
(360 120)
(361 122)
(122 123)
(123 361)
(124 125)
(125 362)
(362 124)
(363 126)
(126 127)
(127 363)
(128 129)
(129 364)
(364 128)
(365 130)
(130 131)
(131 365)
(132 133)
(133 366)
(366 132)
(367 134)
(134 135)
(135 367)
(136 137)
(137 368)
(368 136)
(369 138)
(138 139)
(139 369)
(140 141)
(141 370)
(370 140)
(371 142)
(142 143)
(143 371)
(144 145)
(145 372)
(372 144)
(373 146)
(146 147)
(147 373)
(148 149)
(149 374)
(374 148)
(375 150)
(150 151)
(151 375)
(152 153)
(153 376)
(376 152)
(377 154)
(154 155)
(155 377)
(156 157)
(157 378)
(378 156)
(379 158)
(158 159)
(159 379)
(160 161)
(161 380)
(380 160)
(381 162)
(162 163)
(163 381)
(164 165)
(165 382)
(382 164)
(383 166)
(166 167)
(167 383)
(168 169)
(169 384)
(384 168)
(385 170)
(170 171)
(171 385)
(172 173)
(173 386)
(386 172)
(387 174)
(174 175)
(175 387)
(176 177)
(177 388)
(388 176)
(389 178)
(178 179)
(179 389)
(180 181)
(181 390)
(390 180)
(391 182)
(182 183)
(183 391)
(184 185)
(185 392)
(392 184)
(393 186)
(186 187)
(187 393)
(188 189)
(189 394)
(394 188)
(395 190)
(190 191)
(191 395)
(192 193)
(193 396)
(396 192)
(397 194)
(194 195)
(195 397)
(196 197)
(197 398)
(398 196)
(399 198)
(198 199)
(199 399)
(200 201)
(201 400)
(400 200)
(401 202)
(202 203)
(203 401)
(204 205)
(205 402)
(402 204)
(403 206)
(206 207)
(207 403)
(208 209)
(209 404)
(404 208)
(405 210)
(210 211)
(211 405)
(212 213)
(213 406)
(406 212)
(407 214)
(214 215)
(215 407)
(216 217)
(217 408)
(408 216)
(409 218)
(218 219)
(219 409)
(220 221)
(221 410)
(410 220)
(411 222)
(222 223)
(223 411)
(224 225)
(225 412)
(412 224)
(413 226)
(226 227)
(227 413)
(228 229)
(229 414)
(414 228)
(415 230)
(230 231)
(231 415)
(232 233)
(233 416)
(416 232)
(417 234)
(234 235)
(235 417)
(236 237)
(237 418)
(418 236)
(419 238)
(238 239)
(239 419)
(240 241)
(241 420)
(420 240)
(421 242)
(242 243)
(243 421)
(244 245)
(245 422)
(422 244)
(423 246)
(246 247)
(247 423)
(248 249)
(249 424)
(424 248)
(425 250)
(250 251)
(251 425)
(252 253)
(253 426)
(426 252)
(427 254)
(254 255)
(255 427)
(256 257)
(257 428)
(428 256)
(429 258)
(258 259)
(259 429)
(260 261)
(261 430)
(430 260)
(431 262)
(262 263)
(263 431)
(264 265)
(265 432)
(432 264)
(433 266)
(266 267)
(267 433)
(268 269)
(269 434)
(434 268)
(435 270)
(270 271)
(271 435)
(272 273)
(273 436)
(436 272)
(437 274)
(274 275)
(275 437)
(276 277)
(277 438)
(438 276)
(439 278)
(278 279)
(279 439)
(280 281)
(281 440)
(440 280)
(441 282)
(282 283)
(283 441)
(284 285)
(285 442)
(442 284)
(443 286)
(286 287)
(287 443)
(288 289)
(289 444)
(444 288)
(445 290)
(290 291)
(291 445)
(292 293)
(293 446)
(446 292)
(447 294)
(294 295)
(295 447)
(296 297)
(297 448)
(448 296)
(449 298)
(298 299)
(299 449)
)

// * * * * * * * * * * * * * * * * * * * * * * * * * * * * * * * * * * * * * //


// ************************************************************************* //
