/*--------------------------------*- C++ -*----------------------------------*\
| =========                 |                                                 |
| \\      /  F ield         | OpenFOAM: The Open Source CFD Toolbox           |
|  \\    /   O peration     | Version:  v2006                                 |
|   \\  /    A nd           | Website:  www.openfoam.com                      |
|    \\/     M anipulation  |                                                 |
\*---------------------------------------------------------------------------*/
FoamFile
{
    version     2.0;
    format      ascii;
    class       featureEdgeMesh;
    location    "constant/triSurface";
    object      cover.eMesh;
}
// * * * * * * * * * * * * * * * * * * * * * * * * * * * * * * * * * * * * * //


// points:

404
(
(45.1 175.224 -66.5)
(45.1 170.224 -66.5)
(45.1 170.224 -68.5)
(45.1 175.224 -68.5)
(45.0494 170.224 -68.5)
(45.0494 175.224 -68.5)
(44.82537 170.224 -66.5)
(44.82537 175.224 -66.5)
(10.1 170.5534 12.3101)
(10.1 170.8159 12.35351)
(10.1 164.6892 9.575555)
(10.1 164.771 9.643614)
(10.1 163.1485 8.034845)
(10.1 163.3921 8.316571)
(10.1 160.4139 2.170602)
(10.1 160.4527 2.379889)
(10.1 160.9779 -4.275252)
(10.1 160.9598 -4.225211)
(10.1 161.8987 -6.25)
(10.1 161.7426 -5.971498)
(10.1 166.474 -10.82532)
(10.1 166.3363 -10.74462)
(10.1 168.4488 -11.74616)
(10.1 168.0513 -11.59378)
(10.1 180.7589 -9.575555)
(10.1 180.6771 -9.643614)
(10.1 182.2996 -8.034845)
(10.1 182.056 -8.316571)
(10.1 185.0341 -2.170602)
(10.1 184.9954 -2.379889)
(10.1 185.224 2.428613e-14)
(10.1 185.2149 -0.4787842)
(10.1 183.5494 6.25)
(10.1 183.7054 5.971498)
(10.1 178.974 10.82532)
(10.1 179.1118 10.74462)
(10.1 176.9993 11.74616)
(10.1 177.3968 11.59378)
(10.1 172.724 12.5)
(10.1 173.6809 12.46332)
(10.1 174.6322 12.35351)
(10.1 174.8946 12.3101)
(10.1 175.5722 12.17119)
(10.1 176.4955 11.91746)
(10.1 178.2705 11.20207)
(10.1 179.9155 10.22412)
(10.1 180.6771 9.643614)
(10.1 180.7589 9.575555)
(10.1 181.3919 9.00652)
(10.1 182.056 8.316571)
(10.1 182.2996 8.034845)
(10.1 182.6652 7.577817)
(10.1 183.2161 6.794594)
(10.1 184.1303 5.113358)
(10.1 184.4702 4.275252)
(10.1 184.4883 4.225211)
(10.1 184.7772 3.312269)
(10.1 184.9954 2.379889)
(10.1 185.0341 2.170602)
(10.1 185.1416 1.433543)
(10.1 185.2149 0.4787842)
(10.1 185.1416 -1.433543)
(10.1 184.7772 -3.312269)
(10.1 184.4883 -4.225211)
(10.1 184.4702 -4.275252)
(10.1 184.1303 -5.113358)
(10.1 183.7054 -5.971498)
(10.1 183.5494 -6.25)
(10.1 183.2161 -6.794594)
(10.1 182.6652 -7.577817)
(10.1 181.3919 -9.00652)
(10.1 179.9155 -10.22412)
(10.1 179.1118 -10.74462)
(10.1 178.974 -10.82532)
(10.1 178.2705 -11.20207)
(10.1 177.3968 -11.59378)
(10.1 176.9993 -11.74616)
(10.1 176.4955 -11.91746)
(10.1 175.5722 -12.17119)
(10.1 174.8946 -12.3101)
(10.1 174.6322 -12.35351)
(10.1 173.6809 -12.46332)
(10.1 172.724 -12.5)
(10.1 171.7672 -12.46332)
(10.1 170.8159 -12.35351)
(10.1 170.5534 -12.3101)
(10.1 169.8759 -12.17119)
(10.1 168.9525 -11.91746)
(10.1 167.1775 -11.20207)
(10.1 165.5326 -10.22412)
(10.1 164.771 -9.643614)
(10.1 164.6892 -9.575555)
(10.1 164.0561 -9.00652)
(10.1 163.3921 -8.316571)
(10.1 163.1485 -8.034845)
(10.1 162.7829 -7.577817)
(10.1 162.232 -6.794594)
(10.1 161.3177 -5.113358)
(10.1 160.6709 -3.312269)
(10.1 160.4527 -2.379889)
(10.1 160.4139 -2.170602)
(10.1 160.3065 -1.433543)
(10.1 160.2332 -0.4787842)
(10.1 160.224 2.94903e-14)
(10.1 160.2332 0.4787842)
(10.1 160.3065 1.433543)
(10.1 160.6709 3.312269)
(10.1 160.9598 4.225211)
(10.1 160.9779 4.275252)
(10.1 161.3177 5.113358)
(10.1 161.7426 5.971498)
(10.1 161.8987 6.25)
(10.1 162.232 6.794594)
(10.1 162.7829 7.577817)
(10.1 164.0561 9.00652)
(10.1 165.5326 10.22412)
(10.1 166.3363 10.74462)
(10.1 166.474 10.82532)
(10.1 167.1775 11.20207)
(10.1 168.0513 11.59378)
(10.1 168.4488 11.74616)
(10.1 168.9525 11.91746)
(10.1 169.8759 12.17119)
(10.1 171.7672 12.46332)
(45.1 164.9784 -69.57014)
(45.1 170.1374 -69.9522)
(45.1 175.3106 -69.9522)
(45.1 180.4697 -69.57014)
(45.1 112.538 35.74418)
(45.1 110.0626 31.20168)
(45.1 107.9294 26.48877)
(45.1 106.1501 21.63119)
(45.1 104.7344 16.65546)
(45.1 103.69 11.58877)
(45.1 103.0226 6.458785)
(45.1 102.736 1.293523)
(45.1 102.8316 -3.878803)
(45.1 103.3089 -9.029945)
(45.1 104.1654 -14.13177)
(45.1 105.3962 -19.15641)
(45.1 106.9949 -24.07642)
(45.1 108.9525 -28.86494)
(45.1 111.2584 -33.49581)
(45.1 113.9 -37.94374)
(45.1 116.8628 -42.18442)
(45.1 120.1308 -46.19472)
(45.1 123.686 -49.95271)
(45.1 127.5091 -53.43788)
(45.1 131.5791 -56.63119)
(45.1 135.8738 -59.5152)
(45.1 140.3698 -62.07416)
(45.1 145.0425 -64.29409)
(45.1 149.8663 -66.16287)
(45.1 154.815 -67.67029)
(45.1 159.8616 -68.80812)
(45.1 232.91 35.74418)
(45.1 230.1059 40.09146)
(45.1 226.9883 44.21977)
(45.1 223.5744 48.10657)
(45.1 219.8827 51.73063)
(45.1 215.9335 55.07215)
(45.1 211.7483 58.11288)
(45.1 207.3499 60.83623)
(45.1 202.7625 63.2273)
(45.1 198.011 65.27305)
(45.1 193.1213 66.96231)
(45.1 188.1203 68.28584)
(45.1 183.0352 69.23641)
(45.1 177.8937 69.80884)
(45.1 172.724 70)
(45.1 167.5544 69.80884)
(45.1 162.4129 69.23641)
(45.1 157.3278 68.28584)
(45.1 152.3268 66.96231)
(45.1 147.4371 65.27305)
(45.1 142.6856 63.2273)
(45.1 138.0981 60.83623)
(45.1 133.6998 58.11288)
(45.1 129.5146 55.07215)
(45.1 125.5653 51.73063)
(45.1 121.8737 48.10657)
(45.1 118.4598 44.21977)
(45.1 115.3422 40.09146)
(45.1 185.5865 -68.80812)
(45.1 190.633 -67.67029)
(45.1 195.5817 -66.16287)
(45.1 200.4056 -64.29409)
(45.1 205.0783 -62.07416)
(45.1 209.5743 -59.5152)
(45.1 213.869 -56.63119)
(45.1 217.939 -53.43788)
(45.1 221.762 -49.95271)
(45.1 225.3173 -46.19472)
(45.1 228.5852 -42.18442)
(45.1 231.5481 -37.94374)
(45.1 234.1897 -33.49581)
(45.1 236.4956 -28.86494)
(45.1 238.4532 -24.07642)
(45.1 240.0518 -19.15641)
(45.1 241.2827 -14.13177)
(45.1 242.1392 -9.029945)
(45.1 242.6165 -3.878803)
(45.1 242.724 1.387779e-14)
(45.1 242.7121 1.293523)
(45.1 242.4254 6.458785)
(45.1 241.7581 11.58877)
(45.1 240.7137 16.65546)
(45.1 239.298 21.63119)
(45.1 237.5187 26.48877)
(45.1 235.3855 31.20168)
(44.92211 170.224 -67.19228)
(44.92211 175.224 -67.19228)
(0.09999782 168.4488 11.74616)
(0.09999782 166.474 10.82532)
(0.09999782 163.974 15.15544)
(0.09999782 166.7387 16.44462)
(0.09999782 170.5534 12.3101)
(0.09999782 169.6852 17.23414)
(0.09999782 172.724 12.5)
(0.09999782 172.724 17.5)
(0.09999782 174.8946 12.3101)
(0.09999782 175.7629 17.23414)
(0.09999782 176.9993 11.74616)
(0.09999782 178.7094 16.44462)
(0.09999782 178.974 10.82532)
(0.09999782 181.474 15.15544)
(0.09999782 180.7589 9.575555)
(0.09999782 183.9728 13.40578)
(0.09999782 182.2996 8.034845)
(0.09999782 186.1298 11.24878)
(0.09999782 183.5494 6.25)
(0.09999782 187.8795 8.75)
(0.09999782 184.4702 4.275252)
(0.09999782 189.1687 5.985353)
(0.09999782 185.0341 2.170602)
(0.09999782 189.9582 3.038843)
(0.09999782 185.224 2.428613e-14)
(0.09999782 190.224 2.775558e-14)
(0.09999782 185.0341 -2.170602)
(0.09999782 189.9582 -3.038843)
(0.09999782 184.4702 -4.275252)
(0.09999782 189.1687 -5.985353)
(0.09999782 183.5494 -6.25)
(0.09999782 187.8795 -8.75)
(0.09999782 182.2996 -8.034845)
(0.09999782 186.1298 -11.24878)
(0.09999782 180.7589 -9.575555)
(0.09999782 183.9728 -13.40578)
(0.09999782 178.974 -10.82532)
(0.09999782 181.474 -15.15544)
(0.09999782 176.9993 -11.74616)
(0.09999782 178.7094 -16.44462)
(0.09999782 174.8946 -12.3101)
(0.09999782 175.7629 -17.23414)
(0.09999782 172.724 -12.5)
(0.09999782 172.724 -17.5)
(0.09999782 170.5534 -12.3101)
(0.09999782 169.6852 -17.23414)
(0.09999782 168.4488 -11.74616)
(0.09999782 166.7387 -16.44462)
(0.09999782 166.474 -10.82532)
(0.09999782 163.974 -15.15544)
(0.09999782 164.6892 -9.575555)
(0.09999782 161.4753 -13.40578)
(0.09999782 163.1485 -8.034845)
(0.09999782 159.3183 -11.24878)
(0.09999782 161.8987 -6.25)
(0.09999782 157.5686 -8.75)
(0.09999782 160.9779 -4.275252)
(0.09999782 156.2794 -5.985353)
(0.09999782 160.4139 -2.170602)
(0.09999782 155.4899 -3.038843)
(0.09999782 160.224 2.94903e-14)
(0.09999782 155.224 2.94903e-14)
(0.09999782 160.4139 2.170602)
(0.09999782 155.4899 3.038843)
(0.09999782 160.9779 4.275252)
(0.09999782 156.2794 5.985353)
(0.09999782 161.8987 6.25)
(0.09999782 157.5686 8.75)
(0.09999782 163.1485 8.034845)
(0.09999782 159.3183 11.24878)
(0.09999782 164.6892 9.575555)
(0.09999782 161.4753 13.40578)
(10.1 178.7094 16.44462)
(10.1 177.8234 16.74058)
(10.1 176.5731 17.07146)
(10.1 181.3805 15.20906)
(10.1 180.2336 15.80683)
(10.1 179.0458 16.31826)
(10.1 183.5264 13.76804)
(10.1 182.4801 14.52822)
(10.1 181.474 15.15544)
(10.1 186.1298 11.24878)
(10.1 185.4366 12.02664)
(10.1 184.5137 12.93266)
(10.1 183.9728 13.40578)
(10.1 187.7705 8.936046)
(10.1 187.0695 10.02286)
(10.1 186.2901 11.05494)
(10.1 189.1687 5.985353)
(10.1 188.9227 6.622193)
(10.1 188.3894 7.800421)
(10.1 187.8795 8.75)
(10.1 189.9582 3.038843)
(10.1 189.7215 4.163866)
(10.1 189.3675 5.407797)
(10.1 190.2211 0.3233808)
(10.1 190.1494 1.614696)
(10.1 189.9826 2.897193)
(10.1 189.9582 -3.038843)
(10.1 190.0778 -2.257486)
(10.1 190.1972 -0.9697008)
(10.1 190.224 2.775558e-14)
(10.1 189.1687 -5.985353)
(10.1 189.556 -4.789102)
(10.1 189.8637 -3.532942)
(10.1 188.0905 -8.373952)
(10.1 188.6669 -7.216236)
(10.1 189.1563 -6.019106)
(10.1 186.1298 -11.24878)
(10.1 186.6893 -10.54611)
(10.1 187.4301 -9.485934)
(10.1 187.8795 -8.75)
(10.1 184.0278 -13.35947)
(10.1 184.9835 -12.48818)
(10.1 185.8723 -11.54868)
(10.1 181.9366 -14.8788)
(10.1 183.0103 -14.1578)
(10.1 183.9728 -13.40578)
(10.1 178.7094 -16.44462)
(10.1 179.6444 -16.07352)
(10.1 180.8126 -15.51854)
(10.1 181.474 -15.15544)
(10.1 175.9397 -17.20203)
(10.1 177.2013 -16.91757)
(10.1 178.4385 -16.54072)
(10.1 172.724 -17.5)
(10.1 173.3707 -17.48805)
(10.1 174.6605 -17.39253)
(10.1 175.7629 -17.23414)
(10.1 169.6852 -17.23414)
(10.1 170.7876 -17.39253)
(10.1 172.0774 -17.48805)
(10.1 167.0096 -16.54072)
(10.1 168.2468 -16.91757)
(10.1 169.5084 -17.20203)
(10.1 163.974 -15.15544)
(10.1 164.6355 -15.51854)
(10.1 165.8036 -16.07352)
(10.1 166.7387 -16.44462)
(10.1 161.4753 -13.40578)
(10.1 162.4378 -14.1578)
(10.1 163.5115 -14.8788)
(10.1 159.5757 -11.54868)
(10.1 160.4645 -12.48818)
(10.1 161.4203 -13.35947)
(10.1 157.5686 -8.75)
(10.1 158.018 -9.485934)
(10.1 158.7587 -10.54611)
(10.1 159.3183 -11.24878)
(10.1 156.2917 -6.019106)
(10.1 156.7811 -7.216236)
(10.1 157.3576 -8.373952)
(10.1 155.5844 -3.532942)
(10.1 155.8921 -4.789102)
(10.1 156.2794 -5.985353)
(10.1 155.224 2.94903e-14)
(10.1 155.2509 -0.9697008)
(10.1 155.3703 -2.257486)
(10.1 155.4899 -3.038843)
(10.1 155.4655 2.897193)
(10.1 155.2987 1.614696)
(10.1 155.227 0.3233808)
(10.1 156.0805 5.407797)
(10.1 155.7266 4.163866)
(10.1 155.4899 3.038843)
(10.1 157.5686 8.75)
(10.1 157.0587 7.800421)
(10.1 156.5254 6.622193)
(10.1 156.2794 5.985353)
(10.1 159.158 11.05494)
(10.1 158.3786 10.02286)
(10.1 157.6775 8.936046)
(10.1 161.4753 13.40578)
(10.1 160.9344 12.93266)
(10.1 160.0115 12.02664)
(10.1 159.3183 11.24878)
(10.1 163.974 15.15544)
(10.1 162.968 14.52822)
(10.1 161.9217 13.76804)
(10.1 166.4023 16.31826)
(10.1 165.2144 15.80683)
(10.1 164.0676 15.20906)
(10.1 169.6852 17.23414)
(10.1 168.875 17.07146)
(10.1 167.6247 16.74058)
(10.1 166.7387 16.44462)
(10.1 175.7629 17.23414)
(10.1 175.3018 17.3091)
(10.1 174.0165 17.45221)
(10.1 172.724 17.5)
(10.1 171.4316 17.45221)
(10.1 170.1463 17.3091)
)


// edges:

408
(
(8 9)
(10 11)
(12 13)
(14 15)
(16 17)
(18 19)
(20 21)
(22 23)
(24 25)
(26 27)
(28 29)
(30 31)
(32 33)
(34 35)
(36 37)
(38 39)
(39 40)
(40 41)
(41 42)
(42 43)
(43 36)
(37 44)
(44 34)
(35 45)
(45 46)
(46 47)
(47 48)
(48 49)
(49 50)
(50 51)
(51 52)
(52 32)
(33 53)
(53 54)
(54 55)
(55 56)
(56 57)
(57 58)
(58 59)
(59 60)
(60 30)
(31 61)
(61 28)
(29 62)
(62 63)
(63 64)
(64 65)
(65 66)
(66 67)
(67 68)
(68 69)
(69 26)
(27 70)
(70 24)
(25 71)
(71 72)
(72 73)
(73 74)
(74 75)
(75 76)
(76 77)
(77 78)
(78 79)
(79 80)
(80 81)
(81 82)
(82 83)
(83 84)
(84 85)
(85 86)
(86 87)
(87 22)
(23 88)
(88 20)
(21 89)
(89 90)
(90 91)
(91 92)
(92 93)
(93 94)
(94 95)
(95 96)
(96 18)
(19 97)
(97 16)
(17 98)
(98 99)
(99 100)
(100 101)
(101 102)
(102 103)
(103 104)
(104 105)
(105 14)
(15 106)
(106 107)
(107 108)
(108 109)
(109 110)
(110 111)
(111 112)
(112 113)
(113 12)
(13 114)
(114 10)
(11 115)
(115 116)
(116 117)
(117 118)
(118 119)
(119 120)
(120 121)
(121 122)
(122 8)
(9 123)
(123 38)
(1 0)
(2 1)
(124 125)
(3 2)
(125 126)
(126 127)
(0 3)
(128 129)
(129 130)
(130 131)
(131 132)
(132 133)
(133 134)
(134 135)
(135 136)
(136 137)
(137 138)
(138 139)
(139 140)
(140 141)
(141 142)
(142 143)
(143 144)
(144 145)
(145 146)
(146 147)
(147 148)
(148 149)
(149 150)
(150 151)
(151 152)
(152 153)
(153 154)
(154 124)
(155 156)
(156 157)
(157 158)
(158 159)
(159 160)
(160 161)
(161 162)
(162 163)
(163 164)
(164 165)
(165 166)
(166 167)
(167 168)
(168 169)
(169 170)
(170 171)
(171 172)
(172 173)
(173 174)
(174 175)
(175 176)
(176 177)
(177 178)
(178 179)
(179 180)
(180 181)
(181 182)
(182 128)
(127 183)
(183 184)
(184 185)
(185 186)
(186 187)
(187 188)
(188 189)
(189 190)
(190 191)
(191 192)
(192 193)
(193 194)
(194 195)
(195 196)
(196 197)
(197 198)
(198 199)
(199 200)
(200 201)
(201 202)
(202 203)
(203 204)
(204 205)
(205 206)
(206 207)
(207 208)
(208 209)
(209 155)
(4 5)
(6 210)
(210 4)
(211 7)
(7 6)
(5 211)
(212 213)
(214 215)
(216 212)
(215 217)
(218 216)
(217 219)
(220 218)
(219 221)
(222 220)
(221 223)
(224 222)
(223 225)
(226 224)
(225 227)
(228 226)
(227 229)
(230 228)
(229 231)
(232 230)
(231 233)
(234 232)
(233 235)
(236 234)
(235 237)
(238 236)
(237 239)
(240 238)
(239 241)
(242 240)
(241 243)
(244 242)
(243 245)
(246 244)
(245 247)
(248 246)
(247 249)
(250 248)
(249 251)
(252 250)
(251 253)
(254 252)
(253 255)
(256 254)
(255 257)
(258 256)
(257 259)
(260 258)
(259 261)
(262 260)
(261 263)
(264 262)
(263 265)
(266 264)
(265 267)
(268 266)
(267 269)
(270 268)
(269 271)
(272 270)
(271 273)
(274 272)
(273 275)
(276 274)
(275 277)
(278 276)
(277 279)
(280 278)
(279 281)
(282 280)
(281 283)
(213 282)
(283 214)
(284 285)
(285 286)
(287 288)
(288 289)
(289 284)
(290 291)
(291 292)
(292 287)
(293 294)
(294 295)
(295 296)
(296 290)
(297 298)
(298 299)
(299 293)
(300 301)
(301 302)
(302 303)
(303 297)
(304 305)
(305 306)
(306 300)
(307 308)
(308 309)
(309 304)
(310 311)
(311 312)
(312 313)
(313 307)
(314 315)
(315 316)
(316 310)
(317 318)
(318 319)
(319 314)
(320 321)
(321 322)
(322 323)
(323 317)
(324 325)
(325 326)
(326 320)
(327 328)
(328 329)
(329 324)
(330 331)
(331 332)
(332 333)
(333 327)
(334 335)
(335 336)
(336 330)
(337 338)
(338 339)
(339 340)
(340 334)
(341 342)
(342 343)
(343 337)
(344 345)
(345 346)
(346 341)
(347 348)
(348 349)
(349 350)
(350 344)
(351 352)
(352 353)
(353 347)
(354 355)
(355 356)
(356 351)
(357 358)
(358 359)
(359 360)
(360 354)
(361 362)
(362 363)
(363 357)
(364 365)
(365 366)
(366 361)
(367 368)
(368 369)
(369 370)
(370 364)
(371 372)
(372 373)
(373 367)
(374 375)
(375 376)
(376 371)
(377 378)
(378 379)
(379 380)
(380 374)
(381 382)
(382 383)
(383 377)
(384 385)
(385 386)
(386 387)
(387 381)
(388 389)
(389 390)
(390 384)
(391 392)
(392 393)
(393 388)
(394 395)
(395 396)
(396 397)
(397 391)
(286 398)
(398 399)
(399 400)
(400 401)
(401 402)
(402 403)
(403 394)
(5 3)
(0 7)
(4 2)
(6 1)
)

// * * * * * * * * * * * * * * * * * * * * * * * * * * * * * * * * * * * * * //


// ************************************************************************* //
