/*--------------------------------*- C++ -*----------------------------------*\
| =========                 |                                                 |
| \\      /  F ield         | OpenFOAM: The Open Source CFD Toolbox           |
|  \\    /   O peration     | Version:  v2006                                 |
|   \\  /    A nd           | Website:  www.openfoam.com                      |
|    \\/     M anipulation  |                                                 |
\*---------------------------------------------------------------------------*/
FoamFile
{
    version     2.0;
    format      ascii;
    class       featureEdgeMesh;
    location    "constant/triSurface";
    object      cover.eMesh;
}
// * * * * * * * * * * * * * * * * * * * * * * * * * * * * * * * * * * * * * //


// points:

2741
(
(10.1 170.553 12.3101)
(10.1 170.816 12.3535)
(14.9334 170.074 17.16)
(10.1 164.689 9.57555)
(10.1 164.771 9.64361)
(14.9334 161.677 13.3957)
(10.1 163.148 8.03485)
(10.1 163.392 8.31657)
(14.9334 159.761 11.5524)
(10.1 160.414 2.1706)
(10.1 160.453 2.37989)
(14.9334 155.678 3.30585)
(10.1 160.978 -4.27525)
(10.1 160.96 -4.22521)
(14.9334 156.383 -5.86914)
(10.1 161.899 -6.25)
(10.1 161.743 -5.9715)
(14.9334 157.47 -8.29487)
(10.1 166.474 -10.8253)
(10.1 166.336 -10.7446)
(14.9334 163.851 -14.9251)
(10.1 168.449 -11.7462)
(10.1 168.051 -11.5938)
(14.9334 166.233 -16.1047)
(10.1 180.759 -9.57555)
(10.1 180.677 -9.64361)
(14.9334 183.771 -13.3957)
(10.1 182.3 -8.03485)
(10.1 182.056 -8.31657)
(14.9334 185.687 -11.5524)
(10.1 185.034 -2.1706)
(10.1 184.995 -2.37989)
(14.9334 189.77 -3.30585)
(10.1 185.224 2.42861e-14)
(10.1 185.215 -0.478784)
(14.9334 190.075 -0.665068)
(10.1 183.549 6.25)
(10.1 183.705 5.9715)
(14.9334 187.978 8.29487)
(10.1 178.974 10.8253)
(10.1 179.112 10.7446)
(14.9334 181.597 14.9251)
(10.1 176.999 11.7462)
(10.1 177.397 11.5938)
(14.9334 179.215 16.1047)
(45.1 237.724 1.38778e-14)
(45.1 237.676 2.48968)
(44.9679 235.308 2.39888)
(45.1 177.7 64.8093)
(45.1 172.724 65)
(44.9679 172.724 62.6296)
(45.1 182.646 64.2382)
(44.9679 177.518 62.4458)
(45.1 187.535 63.2902)
(44.9679 182.284 61.8956)
(45.1 197.022 60.2877)
(45.1 192.336 61.9708)
(44.9679 191.621 59.7108)
(45.1 201.566 58.2508)
(44.9679 196.136 58.0891)
(45.1 205.94 55.872)
(44.9679 200.514 56.1265)
(45.1 210.12 53.1654)
(44.9679 204.729 53.8345)
(45.1 214.08 50.1468)
(44.9679 208.756 51.2266)
(45.1 217.797 46.8339)
(44.9679 212.572 48.318)
(45.1 221.25 43.2462)
(44.9679 216.153 45.126)
(45.1 224.418 39.4047)
(44.9679 219.48 41.6691)
(45.1 229.827 31.0518)
(45.1 227.283 35.3319)
(44.9679 225.293 34.0434)
(45.1 232.037 26.5895)
(44.9679 227.745 29.9194)
(45.1 233.898 21.9711)
(44.9679 229.874 25.6198)
(45.1 235.4 17.2238)
(44.9679 231.667 21.1698)
(45.1 236.535 12.3754)
(44.9679 233.115 16.5957)
(45.1 237.295 7.45442)
(44.9679 234.208 11.9241)
(44.9679 234.94 7.18257)
(44.9679 235.308 -2.39888)
(45.1 237.676 -2.48968)
(45.1 236.535 -12.3754)
(45.1 237.295 -7.45442)
(44.9679 234.94 -7.18257)
(45.1 235.4 -17.2238)
(44.9679 234.208 -11.9241)
(45.1 233.898 -21.9711)
(44.9679 233.115 -16.5957)
(45.1 232.037 -26.5895)
(44.9679 231.667 -21.1698)
(45.1 227.283 -35.3319)
(45.1 229.827 -31.0518)
(44.9679 227.745 -29.9194)
(45.1 224.418 -39.4047)
(44.9679 225.293 -34.0434)
(45.1 221.25 -43.2462)
(44.9679 222.533 -37.9676)
(45.1 217.797 -46.8339)
(44.9679 219.48 -41.6691)
(45.1 214.08 -50.1468)
(44.9679 216.153 -45.126)
(45.1 210.12 -53.1654)
(44.9679 212.572 -48.318)
(45.1 205.94 -55.872)
(44.9679 208.756 -51.2266)
(45.1 201.566 -58.2508)
(44.9679 204.729 -53.8345)
(45.1 197.022 -60.2877)
(44.9679 200.514 -56.1265)
(45.1 192.336 -61.9708)
(44.9679 196.136 -58.0891)
(45.1 182.646 -64.2382)
(45.1 187.535 -63.2902)
(44.9679 186.994 -60.9821)
(45.1 177.7 -64.8093)
(44.9679 182.284 -61.8956)
(45.1 172.724 -65)
(44.9679 177.518 -62.4458)
(45.1 167.748 -64.8093)
(44.9679 172.724 -62.6296)
(45.1 162.802 -64.2382)
(44.9679 167.93 -62.4458)
(45.1 157.914 -63.2902)
(44.9679 163.164 -61.8956)
(45.1 153.112 -61.9708)
(44.9679 158.454 -60.9821)
(45.1 148.426 -60.2877)
(44.9679 153.827 -59.7108)
(45.1 139.508 -55.872)
(45.1 143.882 -58.2508)
(44.9679 144.934 -56.1265)
(45.1 135.328 -53.1654)
(44.9679 140.719 -53.8345)
(45.1 131.368 -50.1468)
(44.9679 136.692 -51.2266)
(45.1 127.651 -46.8339)
(44.9679 132.876 -48.318)
(45.1 124.198 -43.2462)
(44.9679 129.295 -45.126)
(45.1 121.03 -39.4047)
(44.9679 125.968 -41.6691)
(45.1 115.621 -31.0518)
(45.1 118.165 -35.3319)
(44.9679 120.155 -34.0434)
(45.1 113.411 -26.5895)
(44.9679 117.703 -29.9194)
(45.1 111.55 -21.9711)
(44.9679 115.574 -25.6198)
(45.1 110.048 -17.2238)
(44.9679 113.781 -21.1698)
(45.1 108.913 -12.3754)
(44.9679 112.333 -16.5957)
(45.1 108.153 -7.45442)
(44.9679 111.24 -11.9241)
(45.1 107.772 -2.48968)
(44.9679 110.508 -7.18257)
(45.1 107.772 2.48968)
(44.9679 110.14 -2.39888)
(45.1 108.913 12.3754)
(45.1 108.153 7.45442)
(44.9679 110.508 7.18257)
(45.1 110.048 17.2238)
(44.9679 111.24 11.9241)
(45.1 111.55 21.9711)
(44.9679 112.333 16.5957)
(45.1 113.411 26.5895)
(44.9679 113.781 21.1698)
(45.1 115.621 31.0518)
(44.9679 115.574 25.6198)
(45.1 118.165 35.3319)
(44.9679 117.703 29.9194)
(45.1 121.03 39.4047)
(44.9679 120.155 34.0434)
(45.1 124.198 43.2462)
(44.9679 122.915 37.9676)
(45.1 127.651 46.8339)
(44.9679 125.968 41.6691)
(45.1 131.368 50.1468)
(44.9679 129.295 45.126)
(45.1 135.328 53.1654)
(44.9679 132.876 48.318)
(45.1 139.508 55.872)
(44.9679 136.692 51.2266)
(45.1 143.882 58.2508)
(44.9679 140.719 53.8345)
(45.1 148.426 60.2877)
(44.9679 144.934 56.1265)
(45.1 153.112 61.9708)
(44.9679 149.312 58.0891)
(45.1 162.802 64.2382)
(45.1 157.914 63.2902)
(44.9679 158.454 60.9821)
(45.1 167.748 64.8093)
(44.9679 163.164 61.8956)
(44.9679 167.93 62.4458)
(44.5797 127.79 40.0448)
(44.5797 130.988 43.367)
(43.9149 132.801 41.4825)
(43.9149 136.094 44.4169)
(42.9499 137.879 42.2524)
(42.9499 141.215 44.7958)
(41.6573 142.949 42.3307)
(41.6573 146.277 44.4857)
(40.0071 147.932 41.7015)
(40.0071 151.197 43.4769)
(37.9678 152.742 40.3579)
(37.9678 155.89 41.7691)
(35.5076 157.286 38.3038)
(35.5076 160.264 39.3732)
(32.5956 161.472 35.5551)
(32.5956 164.227 36.3121)
(29.2036 165.203 32.1413)
(29.2036 167.685 32.6227)
(25.3085 168.383 28.106)
(25.3085 170.547 28.3559)
(20.8953 170.919 23.5072)
(20.8953 172.724 23.5764)
(14.9334 172.724 17.3635)
(14.9334 174.053 17.3125)
(44.5797 134.43 46.4346)
(43.9149 139.601 47.0906)
(42.9499 144.737 47.0763)
(41.6573 149.76 46.3797)
(40.0071 154.589 44.9972)
(37.9678 159.136 42.9352)
(35.5076 163.314 40.2115)
(32.5956 167.031 36.8561)
(29.2036 170.197 32.9127)
(25.3085 172.724 28.4393)
(20.8953 174.529 23.5072)
(14.9334 175.375 17.16)
(44.5797 163.536 59.4829)
(44.5797 168.117 60.0117)
(43.9149 168.317 57.404)
(43.9149 172.724 57.5729)
(42.9499 172.724 54.7673)
(42.9499 176.916 54.6066)
(41.6573 176.686 51.6016)
(41.6573 180.624 51.1469)
(40.0071 180.13 47.9458)
(40.0071 183.778 47.2382)
(37.9678 182.985 43.8494)
(37.9678 186.312 42.9352)
(35.5076 185.184 39.3732)
(35.5076 188.162 38.3038)
(32.5956 186.665 34.5895)
(32.5956 189.272 33.4208)
(29.2036 187.371 29.5821)
(29.2036 189.593 28.3741)
(25.3085 187.257 24.4456)
(25.3085 189.086 23.2614)
(20.8953 186.288 19.2838)
(20.8953 187.724 18.1889)
(14.9334 183.771 13.3957)
(14.9334 184.764 12.5107)
(44.5797 172.724 60.1883)
(43.9149 177.131 57.404)
(42.9499 181.084 54.1254)
(41.6573 184.516 50.3921)
(40.0071 187.362 46.2534)
(37.9678 189.559 41.7691)
(35.5076 191.049 37.0097)
(32.5956 191.781 32.056)
(29.2036 191.715 26.9995)
(25.3085 190.818 21.9406)
(20.8953 189.073 16.9873)
(14.9334 185.687 11.5524)
(44.5797 195.223 55.8248)
(44.5797 199.431 53.9387)
(43.9149 198.27 51.5948)
(43.9149 202.145 49.4879)
(42.9499 200.711 47.0763)
(42.9499 204.233 44.7958)
(41.6573 202.499 42.3307)
(41.6573 205.652 39.9272)
(40.0071 203.591 37.4283)
(40.0071 206.365 34.9557)
(37.9678 203.952 32.4479)
(37.9678 206.344 29.9623)
(35.5076 203.555 27.4765)
(35.5076 205.568 25.0358)
(32.5956 202.383 22.608)
(32.5956 204.027 20.2713)
(29.2036 200.431 17.9429)
(29.2036 201.723 15.7693)
(25.3085 197.708 13.586)
(25.3085 198.675 11.6336)
(20.8953 194.238 9.64435)
(20.8953 194.913 7.96921)
(14.9334 189.066 5.86914)
(14.9334 189.467 4.601)
(44.5797 203.481 51.736)
(43.9149 205.847 47.0906)
(42.9499 207.569 42.2524)
(41.6573 208.612 37.2895)
(40.0071 208.943 32.2779)
(37.9678 208.539 27.3007)
(35.5076 207.388 22.4481)
(32.5956 205.486 17.8157)
(29.2036 202.845 13.5032)
(25.3085 199.489 9.61298)
(20.8953 195.458 6.2473)
(14.9334 189.77 3.30585)
(44.5797 225.6 28.7532)
(44.5797 227.646 24.6211)
(43.9149 225.26 23.5513)
(43.9149 226.908 19.4606)
(42.9499 224.268 18.5123)
(42.9499 225.534 14.5123)
(41.6573 222.628 13.7137)
(41.6573 223.531 9.8534)
(40.0071 220.351 9.2367)
(40.0071 220.918 5.56379)
(37.9678 217.461 5.16465)
(37.9678 217.725 1.72492)
(35.5076 213.992 1.58182)
(35.5076 213.992 -1.58182)
(32.5956 209.99 -1.42843)
(32.5956 209.771 -4.2769)
(29.2036 205.516 -3.78565)
(29.2036 205.13 -6.28473)
(25.3085 200.643 -5.4146)
(25.3085 200.147 -7.5359)
(20.8953 195.458 -6.2473)
(20.8953 194.913 -7.96921)
(14.9334 189.066 -5.86914)
(14.9334 188.568 -7.10285)
(44.5797 229.37 20.3447)
(43.9149 228.239 15.2557)
(42.9499 226.49 10.4272)
(41.6573 224.136 5.93527)
(40.0071 221.203 1.85823)
(37.9678 217.725 -1.72492)
(35.5076 213.749 -4.73617)
(32.5956 209.335 -7.10028)
(29.2036 204.554 -8.74693)
(25.3085 199.489 -9.61298)
(20.8953 194.238 -9.64435)
(14.9334 187.978 -8.29487)
(44.5797 231.811 -11.4593)
(44.5797 230.761 -15.9488)
(43.9149 228.239 -15.2557)
(43.9149 226.908 -19.4606)
(42.9499 224.268 -18.5123)
(42.9499 222.699 -22.4036)
(41.6573 219.949 -21.1707)
(41.6573 218.19 -24.7237)
(40.0071 215.344 -23.1763)
(40.0071 213.445 -26.3708)
(37.9678 210.524 -24.479)
(37.9678 208.539 -27.3007)
(35.5076 205.568 -25.0358)
(35.5076 203.555 -27.4765)
(32.5956 200.565 -24.8121)
(32.5956 198.584 -26.8705)
(29.2036 195.614 -23.7841)
(29.2036 193.726 -25.4666)
(25.3085 190.818 -21.9406)
(25.3085 189.086 -23.2614)
(20.8953 186.288 -19.2838)
(20.8953 184.772 -20.2655)
(14.9334 181.597 -14.9251)
(14.9334 180.429 -15.5605)
(44.5797 229.37 -20.3447)
(43.9149 225.26 -23.5513)
(42.9499 220.838 -26.1634)
(41.6573 216.164 -28.1315)
(40.0071 211.307 -29.4106)
(37.9678 206.344 -29.9623)
(35.5076 201.361 -29.756)
(32.5956 196.452 -28.7712)
(29.2036 191.715 -26.9995)
(25.3085 187.257 -24.4456)
(20.8953 183.185 -21.1283)
(14.9334 179.215 -16.1047)
(44.5797 223.244 -32.7164)
(44.5797 220.591 -36.4877)
(43.9149 218.511 -34.9021)
(43.9149 215.705 -38.3047)
(42.9499 213.611 -36.4381)
(42.9499 210.702 -39.461)
(41.6573 208.612 -37.2895)
(41.6573 205.652 -39.9272)
(40.0071 203.591 -37.4283)
(40.0071 200.635 -39.6813)
(37.9678 198.633 -36.8346)
(37.9678 195.737 -38.7098)
(35.5076 193.828 -35.4983)
(35.5076 191.049 -37.0097)
(32.5956 189.272 -33.4208)
(32.5956 186.665 -34.5895)
(29.2036 185.064 -30.6165)
(29.2036 182.684 -31.4712)
(25.3085 181.305 -27.114)
(25.3085 179.204 -27.6912)
(20.8953 178.096 -22.9562)
(20.8953 176.323 -23.3001)
(14.9334 175.375 -17.16)
(14.9334 174.053 -17.3125)
(44.5797 217.658 -40.0448)
(43.9149 212.647 -41.4825)
(42.9499 207.569 -42.2524)
(41.6573 202.499 -42.3307)
(40.0071 197.516 -41.7015)
(37.9678 192.706 -40.3579)
(35.5076 188.162 -38.3038)
(32.5956 183.976 -35.5551)
(29.2036 180.245 -32.1413)
(25.3085 177.065 -28.106)
(20.8953 174.529 -23.5072)
(14.9334 172.724 -17.3635)
(44.5797 214.461 -43.367)
(43.9149 209.354 -44.4169)
(42.9499 204.233 -44.7958)
(41.6573 199.171 -44.4857)
(40.0071 194.251 -43.4769)
(37.9678 189.559 -41.7691)
(35.5076 185.184 -39.3732)
(32.5956 181.221 -36.3121)
(29.2036 177.763 -32.6227)
(25.3085 174.901 -28.3559)
(20.8953 172.724 -23.5764)
(14.9334 171.395 -17.3125)
(44.5797 211.018 -46.4346)
(43.9149 205.847 -47.0906)
(42.9499 200.711 -47.0763)
(41.6573 195.688 -46.3797)
(40.0071 190.859 -44.9972)
(37.9678 186.312 -42.9352)
(35.5076 182.134 -40.2115)
(32.5956 178.417 -36.8561)
(29.2036 175.251 -32.9127)
(25.3085 172.724 -28.4393)
(20.8953 170.919 -23.5072)
(14.9334 170.074 -17.16)
(44.5797 181.912 -59.4829)
(44.5797 177.331 -60.0117)
(43.9149 177.131 -57.404)
(43.9149 172.724 -57.5729)
(42.9499 172.724 -54.7673)
(42.9499 168.532 -54.6066)
(41.6573 168.762 -51.6016)
(41.6573 164.824 -51.1469)
(40.0071 165.318 -47.9458)
(40.0071 161.67 -47.2382)
(37.9678 162.463 -43.8494)
(37.9678 159.136 -42.9352)
(35.5076 160.264 -39.3732)
(35.5076 157.286 -38.3038)
(32.5956 158.783 -34.5895)
(32.5956 156.176 -33.4208)
(29.2036 158.077 -29.5821)
(29.2036 155.855 -28.3741)
(25.3085 158.191 -24.4456)
(25.3085 156.362 -23.2614)
(20.8953 159.16 -19.2838)
(20.8953 157.724 -18.1889)
(14.9334 161.677 -13.3957)
(14.9334 160.684 -12.5107)
(44.5797 172.724 -60.1883)
(43.9149 168.317 -57.404)
(42.9499 164.364 -54.1254)
(41.6573 160.932 -50.3921)
(40.0071 158.086 -46.2534)
(37.9678 155.89 -41.7691)
(35.5076 154.399 -37.0097)
(32.5956 153.667 -32.056)
(29.2036 153.733 -26.9995)
(25.3085 154.63 -21.9406)
(20.8953 156.375 -16.9873)
(14.9334 159.761 -11.5524)
(44.5797 141.967 -51.736)
(44.5797 138.097 -49.2298)
(43.9149 139.601 -47.0906)
(43.9149 136.094 -44.4169)
(42.9499 137.879 -42.2524)
(42.9499 134.747 -39.461)
(41.6573 136.837 -37.2895)
(41.6573 134.087 -34.4329)
(40.0071 136.505 -32.2779)
(40.0071 134.141 -29.4106)
(37.9678 136.909 -27.3007)
(37.9678 134.924 -24.479)
(35.5076 138.06 -22.4481)
(35.5076 136.443 -19.7288)
(32.5956 139.962 -17.8157)
(32.5956 138.694 -15.2555)
(29.2036 142.603 -13.5032)
(29.2036 141.657 -11.1578)
(25.3085 145.959 -9.61298)
(25.3085 145.301 -7.5359)
(20.8953 149.99 -6.2473)
(20.8953 149.579 -4.48873)
(14.9334 155.678 -3.30585)
(14.9334 155.475 -1.9913)
(44.5797 134.43 -46.4346)
(43.9149 132.801 -41.4825)
(42.9499 131.837 -36.4381)
(41.6573 131.565 -31.3743)
(40.0071 132.003 -26.3708)
(37.9678 133.161 -21.5136)
(35.5076 135.04 -16.8936)
(32.5956 137.626 -12.6057)
(29.2036 140.894 -8.74693)
(25.3085 144.805 -5.4146)
(20.8953 149.303 -2.70382)
(14.9334 155.373 -0.665068)
(44.5797 119.848 -28.7532)
(44.5797 117.802 -24.6211)
(43.9149 120.189 -23.5513)
(43.9149 118.54 -19.4606)
(42.9499 121.18 -18.5123)
(42.9499 119.914 -14.5123)
(41.6573 122.821 -13.7137)
(41.6573 121.917 -9.8534)
(40.0071 125.097 -9.2367)
(40.0071 124.53 -5.56379)
(37.9678 127.987 -5.16465)
(37.9678 127.723 -1.72492)
(35.5076 131.457 -1.58182)
(35.5076 131.457 1.58182)
(32.5956 135.458 1.42843)
(32.5956 135.677 4.2769)
(29.2036 139.932 3.78565)
(29.2036 140.318 6.28473)
(25.3085 144.805 5.4146)
(25.3085 145.301 7.5359)
(20.8953 149.99 6.2473)
(20.8953 150.535 7.96921)
(14.9334 156.383 5.86914)
(14.9334 156.88 7.10285)
(44.5797 116.078 -20.3447)
(43.9149 117.209 -15.2557)
(42.9499 118.959 -10.4272)
(41.6573 121.312 -5.93527)
(40.0071 124.245 -1.85823)
(37.9678 127.723 1.72492)
(35.5076 131.699 4.73617)
(32.5956 136.113 7.10028)
(29.2036 140.894 8.74693)
(25.3085 145.959 9.61298)
(20.8953 151.21 9.64435)
(14.9334 157.47 8.29487)
(44.5797 113.637 11.4593)
(44.5797 114.687 15.9488)
(43.9149 117.209 15.2557)
(43.9149 118.54 19.4606)
(42.9499 121.18 18.5123)
(42.9499 122.749 22.4036)
(41.6573 125.499 21.1707)
(41.6573 127.258 24.7237)
(40.0071 130.104 23.1763)
(40.0071 132.003 26.3708)
(37.9678 134.924 24.479)
(37.9678 136.909 27.3007)
(35.5076 139.88 25.0358)
(35.5076 141.893 27.4765)
(32.5956 144.883 24.8121)
(32.5956 146.864 26.8705)
(29.2036 149.834 23.7841)
(29.2036 151.722 25.4666)
(25.3085 154.63 21.9406)
(25.3085 156.362 23.2614)
(20.8953 159.16 19.2838)
(20.8953 160.676 20.2655)
(14.9334 163.851 14.9251)
(14.9334 165.02 15.5605)
(44.5797 116.078 20.3447)
(43.9149 120.189 23.5513)
(42.9499 124.61 26.1634)
(41.6573 129.284 28.1315)
(40.0071 134.141 29.4106)
(37.9678 139.104 29.9623)
(35.5076 144.087 29.756)
(32.5956 148.997 28.7712)
(29.2036 153.733 26.9995)
(25.3085 158.191 24.4456)
(20.8953 162.263 21.1283)
(14.9334 166.233 16.1047)
(10.1 172.724 12.5)
(10.1 173.681 12.4633)
(10.1 174.632 12.3535)
(10.1 174.895 12.3101)
(44.5797 138.097 49.2298)
(43.9149 143.303 49.4879)
(42.9499 148.423 49.0806)
(41.6573 153.378 48.0015)
(40.0071 158.086 46.2534)
(37.9678 162.463 43.8494)
(35.5076 166.42 40.8138)
(32.5956 169.869 37.1837)
(29.2036 172.724 33.0096)
(25.3085 174.901 28.3559)
(20.8953 176.323 23.3001)
(14.9334 176.68 16.9067)
(10.1 175.572 12.1712)
(44.5797 141.967 51.736)
(43.9149 147.178 51.5948)
(42.9499 152.251 50.7968)
(41.6573 157.109 49.3416)
(40.0071 161.67 47.2382)
(37.9678 165.85 44.5062)
(35.5076 169.563 41.1766)
(32.5956 172.724 37.2931)
(29.2036 175.251 32.9127)
(25.3085 177.065 28.106)
(20.8953 178.096 22.9562)
(14.9334 177.963 16.5543)
(10.1 176.495 11.9175)
(44.5797 146.017 53.9387)
(43.9149 151.202 53.399)
(42.9499 156.2 52.2149)
(41.6573 160.932 50.3921)
(40.0071 165.318 47.9458)
(37.9678 169.277 44.9018)
(35.5076 172.724 41.2978)
(32.5956 175.579 37.1837)
(29.2036 177.763 32.6227)
(25.3085 179.204 27.6912)
(20.8953 179.837 22.4776)
(44.5797 150.225 55.8248)
(43.9149 155.353 54.8898)
(42.9499 160.245 53.3266)
(41.6573 164.824 51.1469)
(40.0071 169.01 48.372)
(37.9678 172.724 45.034)
(35.5076 175.885 41.1766)
(32.5956 178.417 36.8561)
(29.2036 180.245 32.1413)
(25.3085 181.305 27.114)
(20.8953 181.537 21.8671)
(14.9334 180.429 15.5605)
(10.1 178.27 11.2021)
(44.5797 154.564 57.3833)
(43.9149 159.606 56.0585)
(42.9499 164.364 54.1254)
(41.6573 168.762 51.6016)
(40.0071 172.724 48.5144)
(37.9678 176.171 44.9018)
(35.5076 179.028 40.8138)
(32.5956 181.221 36.3121)
(29.2036 182.684 31.4712)
(25.3085 183.355 26.3776)
(20.8953 183.185 21.1283)
(44.9679 153.827 59.7108)
(44.5797 159.01 58.6051)
(43.9149 163.936 56.8982)
(42.9499 168.532 54.6066)
(41.6573 172.724 51.7535)
(40.0071 176.438 48.372)
(37.9678 179.598 44.5062)
(35.5076 182.134 40.2115)
(32.5956 183.976 35.5551)
(29.2036 185.064 30.6165)
(25.3085 185.343 25.4863)
(20.8953 184.772 20.2655)
(14.9334 182.714 14.2021)
(10.1 179.915 10.2241)
(10.1 180.677 9.64361)
(10.1 180.759 9.57555)
(10.1 181.392 9.00652)
(10.1 182.056 8.31657)
(10.1 182.3 8.03485)
(44.5797 177.331 60.0117)
(43.9149 181.512 56.8982)
(42.9499 185.203 53.3266)
(41.6573 188.339 49.3416)
(40.0071 190.859 44.9972)
(37.9678 192.706 40.3579)
(35.5076 193.828 35.4983)
(32.5956 194.18 30.5031)
(29.2036 193.726 25.4666)
(25.3085 192.445 20.4912)
(20.8953 190.325 15.686)
(14.9334 186.533 10.5262)
(10.1 182.665 7.57782)
(44.5797 181.912 59.4829)
(43.9149 185.842 56.0585)
(42.9499 189.249 52.2149)
(41.6573 192.07 48.0015)
(40.0071 194.251 43.4769)
(37.9678 195.737 38.7098)
(35.5076 196.483 33.7787)
(32.5956 196.452 28.7712)
(29.2036 195.614 23.7841)
(25.3085 193.956 18.9214)
(20.8953 191.474 14.2926)
(14.9334 187.298 9.43822)
(10.1 183.216 6.79459)
(44.5797 186.438 58.6051)
(43.9149 190.095 54.8898)
(42.9499 193.197 50.7968)
(41.6573 195.688 46.3797)
(40.0071 197.516 41.7015)
(37.9678 198.633 36.8346)
(35.5076 198.999 31.8608)
(32.5956 198.584 26.8705)
(29.2036 197.367 21.9621)
(25.3085 195.342 17.2407)
(20.8953 192.513 12.8153)
(44.9679 186.994 60.9821)
(44.5797 190.884 57.3833)
(43.9149 194.246 53.399)
(42.9499 197.025 49.0806)
(41.6573 199.171 44.4857)
(40.0071 200.635 39.6813)
(37.9678 201.377 34.7432)
(35.5076 201.361 29.756)
(32.5956 200.565 24.8121)
(29.2036 198.976 20.0113)
(25.3085 196.595 15.4587)
(20.8953 193.436 11.2629)
(14.9334 188.568 7.10285)
(10.1 184.13 5.11336)
(10.1 184.47 4.27525)
(10.1 184.488 4.22521)
(10.1 184.777 3.31227)
(10.1 184.995 2.37989)
(10.1 185.034 2.1706)
(44.5797 207.352 49.2298)
(43.9149 209.354 44.4169)
(42.9499 210.702 39.461)
(41.6573 211.361 34.4329)
(40.0071 211.307 29.4106)
(37.9678 210.524 24.479)
(35.5076 209.005 19.7288)
(32.5956 206.754 15.2555)
(29.2036 203.791 11.1578)
(25.3085 200.147 7.5359)
(20.8953 195.869 4.48873)
(14.9334 189.973 1.9913)
(10.1 185.142 1.43354)
(44.5797 211.018 46.4346)
(43.9149 212.647 41.4825)
(42.9499 213.611 36.4381)
(41.6573 213.883 31.3743)
(40.0071 213.445 26.3708)
(37.9678 212.287 21.5136)
(35.5076 210.408 16.8936)
(32.5956 207.822 12.6057)
(29.2036 204.554 8.74693)
(25.3085 200.643 5.4146)
(20.8953 196.145 2.70382)
(14.9334 190.075 0.665068)
(10.1 185.215 0.478784)
(44.5797 214.461 43.367)
(43.9149 215.705 38.3047)
(42.9499 216.28 33.2013)
(41.6573 216.164 28.1315)
(40.0071 215.344 23.1763)
(37.9678 213.818 18.422)
(35.5076 211.591 13.9593)
(32.5956 208.684 9.88199)
(29.2036 205.13 6.28473)
(25.3085 200.976 3.26152)
(20.8953 196.283 0.903039)
(44.5797 217.658 40.0448)
(43.9149 218.511 34.9021)
(42.9499 218.694 29.7697)
(41.6573 218.19 24.7237)
(40.0071 216.994 19.8457)
(37.9678 215.107 15.2222)
(35.5076 212.546 10.9431)
(32.5956 209.335 7.10028)
(29.2036 205.516 3.78565)
(25.3085 201.143 1.0893)
(20.8953 196.283 -0.903039)
(14.9334 189.973 -1.9913)
(10.1 185.142 -1.43354)
(44.5797 220.591 36.4877)
(43.9149 221.049 31.2948)
(42.9499 220.838 26.1634)
(41.6573 219.949 21.1707)
(40.0071 218.383 16.3987)
(37.9678 216.148 11.9332)
(35.5076 213.266 7.86273)
(32.5956 209.771 4.2769)
(29.2036 205.709 1.26436)
(25.3085 201.143 -1.0893)
(20.8953 196.145 -2.70382)
(44.9679 222.533 37.9676)
(44.5797 223.244 32.7164)
(43.9149 223.303 27.5037)
(42.9499 222.699 22.4036)
(41.6573 221.431 17.4935)
(40.0071 219.504 12.8554)
(37.9678 216.934 8.57407)
(35.5076 213.749 4.73617)
(32.5956 209.99 1.42843)
(29.2036 205.709 -1.26436)
(25.3085 200.976 -3.26152)
(20.8953 195.869 -4.48873)
(14.9334 189.467 -4.601)
(10.1 184.777 -3.31227)
(10.1 184.488 -4.22521)
(10.1 184.47 -4.27525)
(10.1 184.13 -5.11336)
(10.1 183.705 -5.9715)
(10.1 183.549 -6.25)
(44.5797 230.761 15.9488)
(43.9149 229.244 10.9614)
(42.9499 227.13 6.2809)
(41.6573 224.439 1.9823)
(40.0071 221.203 -1.85823)
(37.9678 217.461 -5.16465)
(35.5076 213.266 -7.86273)
(32.5956 208.684 -9.88199)
(29.2036 203.791 -11.1578)
(25.3085 198.675 -11.6336)
(20.8953 193.436 -11.2629)
(14.9334 187.298 -9.43822)
(10.1 183.216 -6.79459)
(44.5797 231.811 11.4593)
(43.9149 229.917 6.60266)
(42.9499 227.451 2.09774)
(41.6573 224.439 -1.9823)
(40.0071 220.918 -5.56379)
(37.9678 216.934 -8.57407)
(35.5076 212.546 -10.9431)
(32.5956 207.822 -12.6057)
(29.2036 202.845 -13.5032)
(25.3085 197.708 -13.586)
(20.8953 192.513 -12.8153)
(14.9334 186.533 -10.5262)
(10.1 182.665 -7.57782)
(44.5797 232.515 6.9026)
(43.9149 230.255 2.2052)
(42.9499 227.451 -2.09774)
(41.6573 224.136 -5.93527)
(40.0071 220.351 -9.2367)
(37.9678 216.148 -11.9332)
(35.5076 211.591 -13.9593)
(32.5956 206.754 -15.2555)
(29.2036 201.723 -15.7693)
(25.3085 196.595 -15.4587)
(20.8953 191.474 -14.2926)
(44.5797 232.868 2.30538)
(43.9149 230.255 -2.2052)
(42.9499 227.13 -6.2809)
(41.6573 223.531 -9.8534)
(40.0071 219.504 -12.8554)
(37.9678 215.107 -15.2222)
(35.5076 210.408 -16.8936)
(32.5956 205.486 -17.8157)
(29.2036 200.431 -17.9429)
(25.3085 195.342 -17.2407)
(20.8953 190.325 -15.686)
(14.9334 184.764 -12.5107)
(10.1 181.392 -9.00652)
(44.5797 232.868 -2.30538)
(43.9149 229.917 -6.60266)
(42.9499 226.49 -10.4272)
(41.6573 222.628 -13.7137)
(40.0071 218.383 -16.3987)
(37.9678 213.818 -18.422)
(35.5076 209.005 -19.7288)
(32.5956 204.027 -20.2713)
(29.2036 198.976 -20.0113)
(25.3085 193.956 -18.9214)
(20.8953 189.073 -16.9873)
(44.5797 232.515 -6.9026)
(43.9149 229.244 -10.9614)
(42.9499 225.534 -14.5123)
(41.6573 221.431 -17.4935)
(40.0071 216.994 -19.8457)
(37.9678 212.287 -21.5136)
(35.5076 207.388 -22.4481)
(32.5956 202.383 -22.608)
(29.2036 197.367 -21.9621)
(25.3085 192.445 -20.4912)
(20.8953 187.724 -18.1889)
(14.9334 182.714 -14.2021)
(10.1 179.915 -10.2241)
(10.1 179.112 -10.7446)
(10.1 178.974 -10.8253)
(10.1 178.27 -11.2021)
(10.1 177.397 -11.5938)
(10.1 176.999 -11.7462)
(44.5797 227.646 -24.6211)
(43.9149 223.303 -27.5037)
(42.9499 218.694 -29.7697)
(41.6573 213.883 -31.3743)
(40.0071 208.943 -32.2779)
(37.9678 203.952 -32.4479)
(35.5076 198.999 -31.8608)
(32.5956 194.18 -30.5031)
(29.2036 189.593 -28.3741)
(25.3085 185.343 -25.4863)
(20.8953 181.537 -21.8671)
(14.9334 177.963 -16.5543)
(10.1 176.495 -11.9175)
(44.9679 229.874 -25.6198)
(44.5797 225.6 -28.7532)
(43.9149 221.049 -31.2948)
(42.9499 216.28 -33.2013)
(41.6573 211.361 -34.4329)
(40.0071 206.365 -34.9557)
(37.9678 201.377 -34.7432)
(35.5076 196.483 -33.7787)
(32.5956 191.781 -32.056)
(29.2036 187.371 -29.5821)
(25.3085 183.355 -26.3776)
(20.8953 179.837 -22.4776)
(14.9334 176.68 -16.9067)
(10.1 175.572 -12.1712)
(10.1 174.895 -12.3101)
(10.1 174.632 -12.3535)
(10.1 173.681 -12.4633)
(10.1 172.724 -12.5)
(10.1 171.767 -12.4633)
(10.1 170.816 -12.3535)
(10.1 170.553 -12.3101)
(44.5797 207.352 -49.2298)
(43.9149 202.145 -49.4879)
(42.9499 197.025 -49.0806)
(41.6573 192.07 -48.0015)
(40.0071 187.362 -46.2534)
(37.9678 182.985 -43.8494)
(35.5076 179.028 -40.8138)
(32.5956 175.579 -37.1837)
(29.2036 172.724 -33.0096)
(25.3085 170.547 -28.3559)
(20.8953 169.125 -23.3001)
(14.9334 168.768 -16.9067)
(10.1 169.876 -12.1712)
(44.5797 203.481 -51.736)
(43.9149 198.27 -51.5948)
(42.9499 193.197 -50.7968)
(41.6573 188.339 -49.3416)
(40.0071 183.778 -47.2382)
(37.9678 179.598 -44.5062)
(35.5076 175.885 -41.1766)
(32.5956 172.724 -37.2931)
(29.2036 170.197 -32.9127)
(25.3085 168.383 -28.106)
(20.8953 167.352 -22.9562)
(14.9334 167.485 -16.5543)
(10.1 168.952 -11.9175)
(44.5797 199.431 -53.9387)
(43.9149 194.246 -53.399)
(42.9499 189.249 -52.2149)
(41.6573 184.516 -50.3921)
(40.0071 180.13 -47.9458)
(37.9678 176.171 -44.9018)
(35.5076 172.724 -41.2978)
(32.5956 169.869 -37.1837)
(29.2036 167.685 -32.6227)
(25.3085 166.244 -27.6912)
(20.8953 165.611 -22.4776)
(44.5797 195.223 -55.8248)
(43.9149 190.095 -54.8898)
(42.9499 185.203 -53.3266)
(41.6573 180.624 -51.1469)
(40.0071 176.438 -48.372)
(37.9678 172.724 -45.034)
(35.5076 169.563 -41.1766)
(32.5956 167.031 -36.8561)
(29.2036 165.203 -32.1413)
(25.3085 164.143 -27.114)
(20.8953 163.911 -21.8671)
(14.9334 165.02 -15.5605)
(10.1 167.178 -11.2021)
(44.5797 190.884 -57.3833)
(43.9149 185.842 -56.0585)
(42.9499 181.084 -54.1254)
(41.6573 176.686 -51.6016)
(40.0071 172.724 -48.5144)
(37.9678 169.277 -44.9018)
(35.5076 166.42 -40.8138)
(32.5956 164.227 -36.3121)
(29.2036 162.764 -31.4712)
(25.3085 162.093 -26.3776)
(20.8953 162.263 -21.1283)
(44.9679 191.621 -59.7108)
(44.5797 186.438 -58.6051)
(43.9149 181.512 -56.8982)
(42.9499 176.916 -54.6066)
(41.6573 172.724 -51.7535)
(40.0071 169.01 -48.372)
(37.9678 165.85 -44.5062)
(35.5076 163.314 -40.2115)
(32.5956 161.472 -35.5551)
(29.2036 160.385 -30.6165)
(25.3085 160.105 -25.4863)
(20.8953 160.676 -20.2655)
(14.9334 162.734 -14.2021)
(10.1 165.533 -10.2241)
(10.1 164.771 -9.64361)
(10.1 164.689 -9.57555)
(10.1 164.056 -9.00652)
(10.1 163.392 -8.31657)
(10.1 163.148 -8.03485)
(44.5797 168.117 -60.0117)
(43.9149 163.936 -56.8982)
(42.9499 160.245 -53.3266)
(41.6573 157.109 -49.3416)
(40.0071 154.589 -44.9972)
(37.9678 152.742 -40.3579)
(35.5076 151.62 -35.4983)
(32.5956 151.269 -30.5031)
(29.2036 151.722 -25.4666)
(25.3085 153.003 -20.4912)
(20.8953 155.123 -15.686)
(14.9334 158.915 -10.5262)
(10.1 162.783 -7.57782)
(44.5797 163.536 -59.4829)
(43.9149 159.606 -56.0585)
(42.9499 156.2 -52.2149)
(41.6573 153.378 -48.0015)
(40.0071 151.197 -43.4769)
(37.9678 149.711 -38.7098)
(35.5076 148.965 -33.7787)
(32.5956 148.997 -28.7712)
(29.2036 149.834 -23.7841)
(25.3085 151.493 -18.9214)
(20.8953 153.974 -14.2926)
(14.9334 158.15 -9.43822)
(10.1 162.232 -6.79459)
(44.5797 159.01 -58.6051)
(43.9149 155.353 -54.8898)
(42.9499 152.251 -50.7968)
(41.6573 149.76 -46.3797)
(40.0071 147.932 -41.7015)
(37.9678 146.815 -36.8346)
(35.5076 146.449 -31.8608)
(32.5956 146.864 -26.8705)
(29.2036 148.081 -21.9621)
(25.3085 150.106 -17.2407)
(20.8953 152.935 -12.8153)
(44.5797 154.564 -57.3833)
(43.9149 151.202 -53.399)
(42.9499 148.423 -49.0806)
(41.6573 146.277 -44.4857)
(40.0071 144.813 -39.6813)
(37.9678 144.072 -34.7432)
(35.5076 144.087 -29.756)
(32.5956 144.883 -24.8121)
(29.2036 146.472 -20.0113)
(25.3085 148.853 -15.4587)
(20.8953 152.012 -11.2629)
(14.9334 156.88 -7.10285)
(10.1 161.318 -5.11336)
(44.5797 150.225 -55.8248)
(43.9149 147.178 -51.5948)
(42.9499 144.737 -47.0763)
(41.6573 142.949 -42.3307)
(40.0071 141.857 -37.4283)
(37.9678 141.496 -32.4479)
(35.5076 141.893 -27.4765)
(32.5956 143.065 -22.608)
(29.2036 145.017 -17.9429)
(25.3085 147.74 -13.586)
(20.8953 151.21 -9.64435)
(44.9679 149.312 -58.0891)
(44.5797 146.017 -53.9387)
(43.9149 143.303 -49.4879)
(42.9499 141.215 -44.7958)
(41.6573 139.796 -39.9272)
(40.0071 139.083 -34.9557)
(37.9678 139.104 -29.9623)
(35.5076 139.88 -25.0358)
(32.5956 141.421 -20.2713)
(29.2036 143.725 -15.7693)
(25.3085 146.773 -11.6336)
(20.8953 150.535 -7.96921)
(14.9334 155.981 -4.601)
(10.1 160.671 -3.31227)
(10.1 160.453 -2.37989)
(10.1 160.414 -2.1706)
(10.1 160.307 -1.43354)
(10.1 160.233 -0.478784)
(10.1 160.224 2.94903e-14)
(44.5797 130.988 -43.367)
(43.9149 129.743 -38.3047)
(42.9499 129.168 -33.2013)
(41.6573 129.284 -28.1315)
(40.0071 130.104 -23.1763)
(37.9678 131.63 -18.422)
(35.5076 133.857 -13.9593)
(32.5956 136.764 -9.88199)
(29.2036 140.318 -6.28473)
(25.3085 144.472 -3.26152)
(20.8953 149.165 -0.903039)
(14.9334 155.373 0.665068)
(10.1 160.233 0.478784)
(44.5797 127.79 -40.0448)
(43.9149 126.937 -34.9021)
(42.9499 126.754 -29.7697)
(41.6573 127.258 -24.7237)
(40.0071 128.454 -19.8457)
(37.9678 130.341 -15.2222)
(35.5076 132.902 -10.9431)
(32.5956 136.113 -7.10028)
(29.2036 139.932 -3.78565)
(25.3085 144.306 -1.0893)
(20.8953 149.165 0.903039)
(14.9334 155.475 1.9913)
(10.1 160.307 1.43354)
(44.5797 124.857 -36.4877)
(43.9149 124.399 -31.2948)
(42.9499 124.61 -26.1634)
(41.6573 125.499 -21.1707)
(40.0071 127.065 -16.3987)
(37.9678 129.3 -11.9332)
(35.5076 132.182 -7.86273)
(32.5956 135.677 -4.2769)
(29.2036 139.739 -1.26436)
(25.3085 144.306 1.0893)
(20.8953 149.303 2.70382)
(44.9679 122.915 -37.9676)
(44.5797 122.204 -32.7164)
(43.9149 122.146 -27.5037)
(42.9499 122.749 -22.4036)
(41.6573 124.017 -17.4935)
(40.0071 125.944 -12.8554)
(37.9678 128.514 -8.57407)
(35.5076 131.699 -4.73617)
(32.5956 135.458 -1.42843)
(29.2036 139.739 1.26436)
(25.3085 144.472 3.26152)
(20.8953 149.579 4.48873)
(14.9334 155.981 4.601)