/*--------------------------------*- C++ -*----------------------------------*\
| =========                 |                                                 |
| \\      /  F ield         | OpenFOAM: The Open Source CFD Toolbox           |
|  \\    /   O peration     | Version:  v2006                                 |
|   \\  /    A nd           | Website:  www.openfoam.com                      |
|    \\/     M anipulation  |                                                 |
\*---------------------------------------------------------------------------*/
FoamFile
{
    version     2.0;
    format      ascii;
    class       featureEdgeMesh;
    location    "constant/triSurface";
    object      rotatingAMI.eMesh;
}
// * * * * * * * * * * * * * * * * * * * * * * * * * * * * * * * * * * * * * //


// points:

120
(
(62.1 240.7053 -14.44986)
(62.1 241.8433 -7.264728)
(62.1 242.224 -2.255141e-14)
(62.1 241.8433 7.264728)
(62.1 232.9128 -34.75)
(62.1 236.2154 -28.2682)
(62.1 238.8225 -21.47668)
(62.1 219.2286 -51.64856)
(62.1 224.3726 -46.50458)
(62.1 228.9507 -40.85108)
(62.1 200.9922 -63.49141)
(62.1 207.474 -60.18877)
(62.1 213.5751 -56.22668)
(62.1 179.9888 -69.11927)
(62.1 187.1739 -67.98126)
(62.1 194.2007 -66.09843)
(62.1 158.2742 -67.98126)
(62.1 165.4593 -69.11927)
(62.1 172.724 -69.5)
(62.1 137.974 -60.18877)
(62.1 144.4558 -63.49141)
(62.1 151.2474 -66.09843)
(62.1 121.0755 -46.50458)
(62.1 126.2195 -51.64856)
(62.1 131.873 -56.22668)
(62.1 109.2326 -28.2682)
(62.1 112.5353 -34.75)
(62.1 116.4974 -40.85108)
(62.1 103.6048 -7.264728)
(62.1 104.7428 -14.44986)
(62.1 106.6256 -21.47668)
(62.1 104.7428 14.44986)
(62.1 103.6048 7.264728)
(62.1 103.224 0)
(62.1 112.5353 34.75)
(62.1 109.2326 28.2682)
(62.1 106.6256 21.47668)
(62.1 126.2195 51.64856)
(62.1 121.0755 46.50458)
(62.1 116.4974 40.85108)
(62.1 144.4558 63.49141)
(62.1 137.974 60.18877)
(62.1 131.873 56.22668)
(62.1 165.4593 69.11927)
(62.1 158.2742 67.98126)
(62.1 151.2474 66.09843)
(62.1 187.1739 67.98126)
(62.1 179.9888 69.11927)
(62.1 172.724 69.5)
(62.1 207.474 60.18877)
(62.1 200.9922 63.49141)
(62.1 194.2007 66.09843)
(62.1 224.3726 46.50458)
(62.1 219.2286 51.64856)
(62.1 213.5751 56.22668)
(62.1 236.2154 28.2682)
(62.1 232.9128 34.75)
(62.1 228.9507 40.85108)
(62.1 240.7053 14.44986)
(62.1 238.8225 21.47668)
(12.1 163.2761 -0.9930204)
(12.1 163.4316 -1.975161)
(12.1 163.689 -2.935661)
(12.1 164.0454 -3.863998)
(12.1 164.4968 -4.75)
(12.1 165.0384 -5.58396)
(12.1 165.6642 -6.356741)
(12.1 166.3673 -7.059876)
(12.1 167.1401 -7.685661)
(12.1 167.974 -8.227241)
(12.1 168.86 -8.678682)
(12.1 169.7884 -9.035037)
(12.1 170.7489 -9.292402)
(12.1 171.731 -9.447958)
(12.1 172.724 -9.5)
(12.1 173.7171 -9.447958)
(12.1 174.6992 -9.292402)
(12.1 175.6597 -9.035037)
(12.1 176.588 -8.678682)
(12.1 177.474 -8.227241)
(12.1 178.308 -7.685661)
(12.1 179.0808 -7.059876)
(12.1 179.7839 -6.356741)
(12.1 180.4097 -5.58396)
(12.1 180.9513 -4.75)
(12.1 181.4027 -3.863998)
(12.1 181.7591 -2.935661)
(12.1 182.0164 -1.975161)
(12.1 182.172 -0.9930204)
(12.1 182.224 -1.734723e-15)
(12.1 182.172 0.9930204)
(12.1 182.0164 1.975161)
(12.1 181.7591 2.935661)
(12.1 181.4027 3.863998)
(12.1 180.9513 4.75)
(12.1 180.4097 5.58396)
(12.1 179.7839 6.356741)
(12.1 179.0808 7.059876)
(12.1 178.308 7.685661)
(12.1 177.474 8.227241)
(12.1 176.588 8.678682)
(12.1 175.6597 9.035037)
(12.1 174.6992 9.292402)
(12.1 173.7171 9.447958)
(12.1 172.724 9.5)
(12.1 171.731 9.447958)
(12.1 170.7489 9.292402)
(12.1 169.7884 9.035037)
(12.1 168.86 8.678682)
(12.1 167.974 8.227241)
(12.1 167.1401 7.685661)
(12.1 166.3673 7.059876)
(12.1 165.6642 6.356741)
(12.1 165.0384 5.58396)
(12.1 164.4968 4.75)
(12.1 164.0454 3.863998)
(12.1 163.689 2.935661)
(12.1 163.4316 1.975161)
(12.1 163.2761 0.9930204)
(12.1 163.224 0)
)


// edges:

120
(
(0 1)
(1 2)
(2 3)
(4 5)
(5 6)
(6 0)
(7 8)
(8 9)
(9 4)
(10 11)
(11 12)
(12 7)
(13 14)
(14 15)
(15 10)
(16 17)
(17 18)
(18 13)
(19 20)
(20 21)
(21 16)
(22 23)
(23 24)
(24 19)
(25 26)
(26 27)
(27 22)
(28 29)
(29 30)
(30 25)
(31 32)
(32 33)
(33 28)
(34 35)
(35 36)
(36 31)
(37 38)
(38 39)
(39 34)
(40 41)
(41 42)
(42 37)
(43 44)
(44 45)
(45 40)
(46 47)
(47 48)
(48 43)
(49 50)
(50 51)
(51 46)
(52 53)
(53 54)
(54 49)
(55 56)
(56 57)
(57 52)
(3 58)
(58 59)
(59 55)
(60 61)
(61 62)
(62 63)
(63 64)
(64 65)
(65 66)
(66 67)
(67 68)
(68 69)
(69 70)
(70 71)
(71 72)
(72 73)
(73 74)
(74 75)
(75 76)
(76 77)
(77 78)
(78 79)
(79 80)
(80 81)
(81 82)
(82 83)
(83 84)
(84 85)
(85 86)
(86 87)
(87 88)
(88 89)
(89 90)
(90 91)
(91 92)
(92 93)
(93 94)
(94 95)
(95 96)
(96 97)
(97 98)
(98 99)
(99 100)
(100 101)
(101 102)
(102 103)
(103 104)
(104 105)
(105 106)
(106 107)
(107 108)
(108 109)
(109 110)
(110 111)
(111 112)
(112 113)
(113 114)
(114 115)
(115 116)
(116 117)
(117 118)
(118 119)
(119 60)
)

// * * * * * * * * * * * * * * * * * * * * * * * * * * * * * * * * * * * * * //


// ************************************************************************* //
