/*--------------------------------*- C++ -*----------------------------------*\
| =========                 |                                                 |
| \\      /  F ield         | OpenFOAM: The Open Source CFD Toolbox           |
|  \\    /   O peration     | Version:  v2006                                 |
|   \\  /    A nd           | Website:  www.openfoam.com                      |
|    \\/     M anipulation  |                                                 |
\*---------------------------------------------------------------------------*/
FoamFile
{
    version     2.0;
    format      ascii;
    class       featureEdgeMesh;
    location    "constant/triSurface";
    object      rotatingAMI.eMesh;
}
// * * * * * * * * * * * * * * * * * * * * * * * * * * * * * * * * * * * * * //


// points:

122
(
(62.1 240.705 -14.4499)
(62.1 241.843 -7.26473)
(62.1 172.724 0)
(62.1 242.224 -2.25514e-14)
(62.1 241.843 7.26473)
(62.1 232.913 -34.75)
(62.1 236.215 -28.2682)
(62.1 238.822 -21.4767)
(62.1 219.229 -51.6486)
(62.1 224.373 -46.5046)
(62.1 228.951 -40.8511)
(62.1 200.992 -63.4914)
(62.1 207.474 -60.1888)
(62.1 213.575 -56.2267)
(62.1 179.989 -69.1193)
(62.1 187.174 -67.9813)
(62.1 194.201 -66.0984)
(62.1 158.274 -67.9813)
(62.1 165.459 -69.1193)
(62.1 172.724 -69.5)
(62.1 137.974 -60.1888)
(62.1 144.456 -63.4914)
(62.1 151.247 -66.0984)
(62.1 121.076 -46.5046)
(62.1 126.219 -51.6486)
(62.1 131.873 -56.2267)
(62.1 109.233 -28.2682)
(62.1 112.535 -34.75)
(62.1 116.497 -40.8511)
(62.1 103.605 -7.26473)
(62.1 104.743 -14.4499)
(62.1 106.626 -21.4767)
(62.1 104.743 14.4499)
(62.1 103.605 7.26473)
(62.1 103.224 0)
(62.1 112.535 34.75)
(62.1 109.233 28.2682)
(62.1 106.626 21.4767)
(62.1 126.219 51.6486)
(62.1 121.076 46.5046)
(62.1 116.497 40.8511)
(62.1 144.456 63.4914)
(62.1 137.974 60.1888)
(62.1 131.873 56.2267)
(62.1 165.459 69.1193)
(62.1 158.274 67.9813)
(62.1 151.247 66.0984)
(62.1 187.174 67.9813)
(62.1 179.989 69.1193)
(62.1 172.724 69.5)
(62.1 207.474 60.1888)
(62.1 200.992 63.4914)
(62.1 194.201 66.0984)
(62.1 224.373 46.5046)
(62.1 219.229 51.6486)
(62.1 213.575 56.2267)
(62.1 236.215 28.2682)
(62.1 232.913 34.75)
(62.1 228.951 40.8511)
(62.1 240.705 14.4499)
(62.1 238.822 21.4767)
(12.1 163.276 -0.99302)
(12.1 163.432 -1.97516)
(12.1 163.689 -2.93566)
(12.1 164.045 -3.864)
(12.1 164.497 -4.75)
(12.1 165.038 -5.58396)
(12.1 165.664 -6.35674)
(12.1 166.367 -7.05988)
(12.1 167.14 -7.68566)
(12.1 167.974 -8.22724)
(12.1 168.86 -8.67868)
(12.1 169.788 -9.03504)
(12.1 170.749 -9.2924)
(12.1 171.731 -9.44796)
(12.1 172.724 -9.5)
(12.1 173.717 -9.44796)
(12.1 174.699 -9.2924)
(12.1 175.66 -9.03504)
(12.1 176.588 -8.67868)
(12.1 177.474 -8.22724)
(12.1 178.308 -7.68566)
(12.1 179.081 -7.05988)
(12.1 179.784 -6.35674)
(12.1 180.41 -5.58396)
(12.1 180.951 -4.75)
(12.1 181.403 -3.864)
(12.1 181.759 -2.93566)
(12.1 182.016 -1.97516)
(12.1 182.172 -0.99302)
(12.1 182.224 -1.73472e-15)
(12.1 182.172 0.99302)
(12.1 182.016 1.97516)
(12.1 181.759 2.93566)
(12.1 181.403 3.864)
(12.1 180.951 4.75)
(12.1 180.41 5.58396)
(12.1 179.784 6.35674)
(12.1 179.081 7.05988)
(12.1 178.308 7.68566)
(12.1 177.474 8.22724)
(12.1 176.588 8.67868)
(12.1 175.66 9.03504)
(12.1 174.699 9.2924)
(12.1 173.717 9.44796)
(12.1 172.724 9.5)
(12.1 171.731 9.44796)
(12.1 170.749 9.2924)
(12.1 169.788 9.03504)
(12.1 168.86 8.67868)
(12.1 167.974 8.22724)
(12.1 167.14 7.68566)
(12.1 166.367 7.05988)
(12.1 165.664 6.35674)
(12.1 165.038 5.58396)
(12.1 164.497 4.75)
(12.1 164.045 3.864)
(12.1 163.689 2.93566)
(12.1 163.432 1.97516)
(12.1 163.276 0.99302)
(12.1 163.224 0)
(12.1 172.724 0)
)


// edges:

360
(
(0 1)
(1 3)
(3 4)
(5 6)
(6 7)
(7 0)
(8 9)
(9 10)
(10 5)
(11 12)
(12 13)
(13 8)
(14 15)
(15 16)
(16 11)
(17 18)
(18 19)
(19 14)
(20 21)
(21 22)
(22 17)
(23 24)
(24 25)
(25 20)
(26 27)
(27 28)
(28 23)
(29 30)
(30 31)
(31 26)
(32 33)
(33 34)
(34 29)
(35 36)
(36 37)
(37 32)
(38 39)
(39 40)
(40 35)
(41 42)
(42 43)
(43 38)
(44 45)
(45 46)
(46 41)
(47 48)
(48 49)
(49 44)
(50 51)
(51 52)
(52 47)
(53 54)
(54 55)
(55 50)
(56 57)
(57 58)
(58 53)
(4 59)
(59 60)
(60 56)
(61 29)
(61 62)
(62 30)
(62 63)
(63 31)
(63 64)
(64 26)
(64 65)
(65 27)
(65 66)
(66 28)
(66 67)
(67 23)
(67 68)
(68 24)
(68 69)
(69 25)
(69 70)
(70 20)
(70 71)
(71 21)
(71 72)
(72 22)
(72 73)
(73 17)
(73 74)
(74 18)
(74 75)
(75 19)
(75 76)
(76 14)
(76 77)
(77 15)
(77 78)
(78 16)
(78 79)
(79 11)
(79 80)
(80 12)
(80 81)
(81 13)
(81 82)
(82 8)
(82 83)
(83 9)
(83 84)
(84 10)
(84 85)
(85 5)
(85 86)
(86 6)
(86 87)
(87 7)
(87 88)
(88 0)
(88 89)
(89 1)
(89 90)
(90 3)
(90 91)
(91 4)
(91 92)
(92 59)
(92 93)
(93 60)
(93 94)
(94 56)
(94 95)
(95 57)
(95 96)
(96 58)
(96 97)
(97 53)
(97 98)
(98 54)
(98 99)
(99 55)
(99 100)
(100 50)
(100 101)
(101 51)
(101 102)
(102 52)
(102 103)
(103 47)
(103 104)
(104 48)
(104 105)
(105 49)
(105 106)
(106 44)
(106 107)
(107 45)
(107 108)
(108 46)
(108 109)
(109 41)
(109 110)
(110 42)
(110 111)
(111 43)
(111 112)
(112 38)
(112 113)
(113 39)
(113 114)
(114 40)
(114 115)
(115 35)
(115 116)
(116 36)
(116 117)
(117 37)
(117 118)
(118 32)
(118 119)
(119 33)
(119 120)
(120 34)
(120 61)
(62 29)
(65 26)
(68 23)
(70 25)
(71 20)
(74 17)
(75 18)
(76 19)
(78 15)
(81 12)
(82 13)
(84 9)
(85 10)
(87 6)
(89 0)
(91 3)
(93 59)
(95 56)
(98 53)
(101 50)
(102 51)
(104 47)
(108 45)
(109 46)
(112 43)
(114 39)
(115 40)
(117 36)
(118 37)
(120 33)
(1 2)
(2 0)
(3 2)
(4 2)
(6 2)
(2 5)
(7 2)
(9 2)
(2 8)
(10 2)
(12 2)
(2 11)
(13 2)
(15 2)
(2 14)
(16 2)
(18 2)
(2 17)
(19 2)
(21 2)
(2 20)
(22 2)
(24 2)
(2 23)
(25 2)
(27 2)
(2 26)
(28 2)
(30 2)
(2 29)
(31 2)
(33 2)
(2 32)
(34 2)
(36 2)
(2 35)
(37 2)
(39 2)
(2 38)
(40 2)
(42 2)
(2 41)
(43 2)
(45 2)
(2 44)
(46 2)
(48 2)
(2 47)
(49 2)
(51 2)
(2 50)
(52 2)
(54 2)
(2 53)
(55 2)
(57 2)
(2 56)
(58 2)
(59 2)
(60 2)
(34 61)
(63 30)
(64 31)
(66 27)
(67 28)
(69 24)
(72 21)
(73 22)
(77 14)
(79 16)
(80 11)
(83 8)
(86 5)
(88 7)
(90 1)
(92 4)
(94 60)
(96 57)
(97 58)
(99 54)
(100 55)
(103 52)
(105 48)
(106 49)
(107 44)
(110 41)
(111 42)
(113 38)
(116 35)
(119 32)
(91 121)
(121 92)
(90 121)
(89 121)
(94 121)
(121 95)
(93 121)
(97 121)
(121 98)
(96 121)
(100 121)
(121 101)
(99 121)
(103 121)
(121 104)
(102 121)
(106 121)
(121 107)
(105 121)
(109 121)
(121 110)
(108 121)
(112 121)
(121 113)
(111 121)
(115 121)
(121 116)
(114 121)
(118 121)
(121 119)
(117 121)
(61 121)
(121 62)
(120 121)
(64 121)
(121 65)
(63 121)
(67 121)
(121 68)
(66 121)
(70 121)
(121 71)
(69 121)
(73 121)
(121 74)
(72 121)
(76 121)
(121 77)
(75 121)
(79 121)
(121 80)
(78 121)
(82 121)
(121 83)
(81 121)
(85 121)
(121 86)
(84 121)
(88 121)
(87 121)
)

// * * * * * * * * * * * * * * * * * * * * * * * * * * * * * * * * * * * * * //


// ************************************************************************* //
