/*--------------------------------*- C++ -*----------------------------------*\
| =========                 |                                                 |
| \\      /  F ield         | OpenFOAM: The Open Source CFD Toolbox           |
|  \\    /   O peration     | Version:  2106                                  |
|   \\  /    A nd           | Website:  www.openfoam.com                      |
|    \\/     M anipulation  |                                                 |
\*---------------------------------------------------------------------------*/
FoamFile
{
    version     2.0;
    format      ascii;
    arch        "LSB;label=32;scalar=64";
    class       extendedFeatureEdgeMesh;
    location    "constant/extendedFeatureEdgeMesh";
    object      inlet.extendedFeatureEdgeMesh;
}
// * * * * * * * * * * * * * * * * * * * * * * * * * * * * * * * * * * * * * //

// points

63
(
(-8.548051 0 28.756405)
(-11.466187 0 27.722311)
(-14.262262 0 26.392952)
(9.735859 0 28.376276)
(6.759506 0 29.228567)
(12.608648 0 27.22172)
(15.34731 0 25.777122)
(-29.945238 0 -1.811812)
(-29.598991 0 -4.888733)
(-28.937437 0 -7.913579)
(-29.072256 0 7.402965)
(-29.680462 0 4.366948)
(-29.972492 0 1.28441)
(16.329544 0 -25.166367)
(18.836374 0 -23.349325)
(21.142342 0 -21.283829)
(23.222906 0 -18.992016)
(25.055965 0 -16.498442)
(26.622097 0 -13.82982)
(-0.081622 0 -29.999889)
(2.70306 0 -29.877975)
(27.904762 0 -11.014727)
(28.890491 0 -8.083282)
(29.569025 0 -5.066827)
(29.89241 0 -2.538462)
(30 0 0)
(29.870045 0 2.789347)
(29.479488 0 5.564155)
(28.834885 0 8.279462)
(27.941 0 10.922479)
(26.805716 0 13.47047)
(25.438969 0 15.901537)
(23.852659 0 18.194798)
(22.06056 0 20.330559)
(20.078194 0 22.290495)
(17.922695 0 24.057783)
(0.623512 0 29.993521)
(-2.470856 0 29.898075)
(-5.624812 0 -29.467974)
(-2.865596 0 -29.862825)
(5.464394 0 -29.498142)
(8.178518 0 -28.863676)
(-5.538928 0 29.484238)
(3.711248 0 29.769558)
(-16.466547 0 -25.076937)
(-13.793827 0 -26.640764)
(-18.963781 0 -23.245968)
(-10.974084 0 -27.920773)
(-21.258938 0 -21.167372)
(-8.335443 0 -28.81875)
(-23.327578 0 -18.8633)
(-26.699869 0 -13.67907)
(-25.14768 0 -16.358307)
(-27.967621 0 -10.854132)
(10.82198 0 -27.980078)
(13.648551 0 -26.715483)
(-28.154362 0 10.360113)
(-25.431826 0 15.91296)
(-26.936558 0 13.206888)
(-23.656204 0 18.449497)
(-21.628626 0 20.789482)
(-19.370699 0 22.907991)
(-16.90649 0 24.782465)
)

// edges

63
(
(0 1)
(1 2)
(3 4)
(5 3)
(6 5)
(7 8)
(8 9)
(10 11)
(11 12)
(13 14)
(14 15)
(15 16)
(16 17)
(17 18)
(19 20)
(18 21)
(21 22)
(22 23)
(23 24)
(24 25)
(25 26)
(26 27)
(27 28)
(28 29)
(29 30)
(30 31)
(31 32)
(32 33)
(33 34)
(34 35)
(35 6)
(12 7)
(36 37)
(38 39)
(39 19)
(20 40)
(40 41)
(37 42)
(42 0)
(43 36)
(4 43)
(44 45)
(46 44)
(45 47)
(48 46)
(47 49)
(49 38)
(50 48)
(51 52)
(52 50)
(53 51)
(9 53)
(41 54)
(54 55)
(55 13)
(56 10)
(57 58)
(58 56)
(59 57)
(60 59)
(61 60)
(62 61)
(2 62)
)

// concaveStart mixedStart nonFeatureStart
0 0 0
// internalStart flatStart openStart multipleStart
0 0 0 63
// normals
63{(0 -1 0)}
// normal volume types

63
(
0
0
0
0
0
0
0
0
0
0
0
0
0
0
0
0
0
0
0
0
0
0
0
0
0
0
0
0
0
0
0
0
0
0
0
0
0
0
0
0
0
0
0
0
0
0
0
0
0
0
0
0
0
0
0
0
0
0
0
0
0
0
0
)

// normalDirections

63
(
1(1)
1(1)
1(1)
1(1)
1(1)
1(1)
1(1)
1(1)
1(1)
1(1)
1(1)
1(1)
1(1)
1(1)
1(1)
1(1)
1(1)
1(1)
1(1)
1(1)
1(1)
1(1)
1(1)
1(1)
1(1)
1(1)
1(1)
1(1)
1(1)
1(1)
1(1)
1(1)
1(1)
1(1)
1(1)
1(1)
1(1)
1(1)
1(1)
1(1)
1(1)
1(1)
1(1)
1(1)
1(1)
1(1)
1(1)
1(1)
1(1)
1(1)
1(1)
1(1)
1(1)
1(1)
1(1)
1(1)
1(1)
1(1)
1(1)
1(1)
1(1)
1(1)
1(1)
)

// edgeNormals

63
(
1(0)
1(1)
1(2)
1(3)
1(4)
1(5)
1(6)
1(7)
1(8)
1(9)
1(10)
1(11)
1(12)
1(13)
1(14)
1(15)
1(16)
1(17)
1(18)
1(19)
1(20)
1(21)
1(22)
1(23)
1(24)
1(25)
1(26)
1(27)
1(28)
1(29)
1(30)
1(31)
1(32)
1(33)
1(34)
1(35)
1(36)
1(37)
1(38)
1(39)
1(40)
1(41)
1(42)
1(43)
1(44)
1(45)
1(46)
1(47)
1(48)
1(49)
1(50)
1(51)
1(52)
1(53)
1(54)
1(55)
1(56)
1(57)
1(58)
1(59)
1(60)
1(61)
1(62)
)

// featurePointNormals
0()
// featurePointEdges
0()
// regionEdges

63
(
0
1
2
3
4
5
6
7
8
9
10
11
12
13
14
15
16
17
18
19
20
21
22
23
24
25
26
27
28
29
30
31
32
33
34
35
36
37
38
39
40
41
42
43
44
45
46
47
48
49
50
51
52
53
54
55
56
57
58
59
60
61
62
)



// ************************************************************************* //
