/*--------------------------------*- C++ -*----------------------------------*\
| =========                 |                                                 |
| \\      /  F ield         | OpenFOAM: The Open Source CFD Toolbox           |
|  \\    /   O peration     | Version:  2106                                  |
|   \\  /    A nd           | Website:  www.openfoam.com                      |
|    \\/     M anipulation  |                                                 |
\*---------------------------------------------------------------------------*/
FoamFile
{
    version     2.0;
    format      ascii;
    arch        "LSB;label=32;scalar=64";
    class       extendedFeatureEdgeMesh;
    location    "constant/extendedFeatureEdgeMesh";
    object      wall.extendedFeatureEdgeMesh;
}
// * * * * * * * * * * * * * * * * * * * * * * * * * * * * * * * * * * * * * //

// points

272
(
(29.967134 0 1.40386)
(30 0 0)
(29.983627 0 -0.990991)
(29.934439 0 -1.982265)
(248.423615 0.659052 0)
(248.390747 0.65833 1.40386)
(248.358063 0.657612 -1.982265)
(248.407242 0.658692 -0.990991)
(29.868361 0 2.807314)
(29.703548 0 4.207046)
(29.472752 0 5.599729)
(29.176208 0 6.982041)
(28.814341 0 8.350675)
(28.387753 0 9.702347)
(27.897223 0 11.033809)
(27.34371 0 12.341862)
(26.728338 0 13.623362)
(26.052401 0 14.875228)
(25.317354 0 16.09446)
(24.524805 0 17.278133)
(23.676517 0 18.423424)
(22.774391 0 19.527599)
(21.820465 0 20.588037)
(20.816914 0 21.602224)
(19.766024 0 22.56777)
(18.670206 0 23.482405)
(17.531977 0 24.34399)
(16.353947 0 25.150517)
(15.138826 0 25.900114)
(13.889409 0 26.591057)
(12.608563 0 27.221758)
(11.299229 0 27.790779)
(9.964405 0 28.296831)
(8.607148 0 28.738771)
(7.230559 0 29.115614)
(5.837777 0 29.426525)
(4.431973 0 29.67082)
(3.016345 0 29.847977)
(1.594102 0 29.957617)
(0.168469 0 29.999527)
(-1.257333 0 29.97364)
(-2.680081 0 29.880047)
(-4.096569 0 29.718987)
(-5.503606 0 29.49085)
(-6.898028 0 29.196184)
(-8.276701 0 28.835676)
(-9.636531 0 28.410162)
(-10.974466 0 27.920622)
(-12.28751 0 27.368177)
(-13.572719 0 26.754089)
(-14.827215 0 26.079756)
(-16.048191 0 25.346708)
(-19.483074 0 22.812492)
(-18.378729 0 23.711227)
(-20.543478 0 21.862423)
(-21.557566 0 20.863157)
(-22.523066 0 19.81695)
(-23.437817 0 18.726152)
(-24.299765 0 17.59322)
(-25.106983 0 16.420702)
(-25.857656 0 15.211232)
(-26.550102 0 13.967535)
(-27.182768 0 12.692404)
(-27.75423 0 11.38871)
(-28.263206 0 10.059383)
(-28.708551 0 8.707416)
(-29.089264 0 7.335849)
(-29.40449 0 5.94777)
(-29.653519 0 4.546302)
(-29.835789 0 3.1346)
(-29.950891 0 1.715841)
(-29.998568 0 0.293219)
(-29.978708 0 -1.130062)
(-29.891359 0 -2.5508)
(-29.736719 0 -3.965796)
(-29.515133 0 -5.371863)
(-29.2271 0 -6.765839)
(-28.87327 0 -8.144584)
(-28.454437 0 -9.504996)
(-27.971544 0 -10.844015)
(-27.425678 0 -12.158628)
(-26.818062 0 -13.445876)
(-26.150061 0 -14.702867)
(-25.423178 0 -15.92677)
(-23.799414 0 -18.264389)
(-24.639042 0 -17.114836)
(-22.906174 0 -19.372849)
(-21.961325 0 -20.437716)
(-20.966984 0 -21.456598)
(-19.925379 0 -22.4272)
(-18.83884 0 -23.347336)
(-17.709805 0 -24.21493)
(-16.540792 0 -25.028027)
(-15.334427 0 -25.78479)
(-14.093403 0 -26.483503)
(-12.820502 0 -27.122587)
(-11.518573 0 -27.700586)
(-10.190532 0 -28.216185)
(-8.839355 0 -28.668201)
(-7.468072 0 -29.055599)
(-6.079761 0 -29.377483)
(-4.677539 0 -29.633101)
(-3.264559 0 -29.821848)
(-1.844002 0 -29.943274)
(-0.419069 0 -29.997072)
(10.752249 0 -28.006948)
(9.40781 0 -28.486717)
(12.07245 0 -27.46372)
(13.365392 0 -26.858263)
(14.628108 0 -26.191954)
(15.8577 0 -25.466318)
(17.051342 0 -24.683025)
(18.206291 0 -23.843887)
(19.319891 0 -22.950855)
(20.389587 0 -22.006016)
(21.412926 0 -21.011583)
(22.387564 0 -19.969902)
(23.311285 0 -18.883432)
(24.18199 0 -17.754755)
(24.997723 0 -16.586557)
(25.756662 0 -15.381624)
(26.457134 0 -14.142843)
(27.097624 0 -12.873182)
(27.676765 0 -11.575691)
(28.193367 0 -10.253488)
(28.646402 0 -8.909751)
(29.035015 0 -7.547709)
(29.35853 0 -6.170632)
(29.616451 0 -4.781819)
(29.808464 0 -3.384588)
(248.291992 0.65616 2.807314)
(248.127228 0.652539 4.207046)
(247.896484 0.647469 5.599729)
(247.600006 0.640955 6.982041)
(247.238235 0.633005 8.350675)
(246.811752 0.623634 9.702347)
(246.321335 0.612857 11.033809)
(245.76796 0.600698 12.341862)
(245.15274 0.587179 13.623362)
(244.476959 0.57233 14.875228)
(243.742096 0.556182 16.09446)
(242.949738 0.538771 17.278133)
(242.101654 0.520135 18.423424)
(241.199738 0.500317 19.527599)
(240.246048 0.479361 20.588037)
(239.242737 0.457314 21.602224)
(238.192108 0.434228 22.56777)
(237.096542 0.410155 23.482405)
(235.958588 0.385149 24.34399)
(234.780853 0.35927 25.150517)
(233.566025 0.332576 25.900114)
(232.31691 0.305128 26.591057)
(231.036362 0.27699 27.221758)
(229.727356 0.248226 27.790779)
(228.392853 0.218902 28.296831)
(227.035919 0.189085 28.738771)
(225.659668 0.158844 29.115614)
(224.267212 0.128247 29.426525)
(222.861755 0.097363 29.67082)
(221.446457 0.066264 29.847977)
(220.024567 0.03502 29.957617)
(218.599274 0.003701 29.999527)
(217.173813 -0.027622 29.97364)
(215.751419 -0.058877 29.880047)
(214.335266 -0.089995 29.718987)
(212.928574 -0.120905 29.49085)
(211.534485 -0.151539 29.196184)
(210.156143 -0.181826 28.835676)
(208.796646 -0.211699 28.410162)
(207.45903 -0.241091 27.920622)
(206.146301 -0.269937 27.368177)
(204.861404 -0.298171 26.754089)
(203.607208 -0.32573 26.079756)
(202.386536 -0.352553 25.346708)
(201.202087 -0.378579 24.556602)
(200.056549 -0.403751 23.711227)
(198.952469 -0.428012 22.812492)
(197.892334 -0.451307 21.862423)
(196.878479 -0.473585 20.863157)
(195.913223 -0.494796 19.81695)
(194.998688 -0.514891 18.726152)
(194.136948 -0.533827 17.59322)
(193.329926 -0.55156 16.420702)
(192.579437 -0.568051 15.211232)
(191.887146 -0.583263 13.967535)
(191.254639 -0.597162 12.692404)
(190.683319 -0.609716 11.38871)
(190.174469 -0.620897 10.059383)
(189.729218 -0.630681 8.707416)
(189.348602 -0.639045 7.335849)
(189.033447 -0.64597 5.94777)
(188.784485 -0.65144 4.546302)
(188.602264 -0.655445 3.1346)
(188.487183 -0.657973 1.715841)
(188.439514 -0.659021 0.293219)
(188.459366 -0.658584 -1.130062)
(188.546707 -0.656665 -2.5508)
(188.701309 -0.653268 -3.965796)
(188.922836 -0.6484 -5.371863)
(189.2108 -0.642073 -6.765839)
(189.564545 -0.6343 -8.144584)
(189.983276 -0.625098 -9.504996)
(190.466049 -0.61449 -10.844015)
(191.011795 -0.602498 -12.158628)
(191.619263 -0.58915 -13.445876)
(192.287094 -0.574475 -14.702867)
(193.013809 -0.558507 -15.92677)
(193.797745 -0.54128 -17.114836)
(194.637177 -0.522835 -18.264389)
(195.530197 -0.503212 -19.372849)
(196.474823 -0.482455 -20.437716)
(197.468918 -0.460611 -21.456598)
(198.510284 -0.437729 -22.4272)
(199.596558 -0.413859 -23.347336)
(200.725311 -0.389056 -24.21493)
(201.894043 -0.363375 -25.028027)
(203.100128 -0.336873 -25.78479)
(204.340851 -0.30961 -26.483503)
(205.613434 -0.281646 -27.122587)
(206.915054 -0.253045 -27.700586)
(208.242767 -0.22387 -28.216185)
(209.593628 -0.194186 -28.668201)
(210.964584 -0.164062 -29.055599)
(212.352554 -0.133563 -29.377483)
(213.75444 -0.102758 -29.633101)
(215.167068 -0.071717 -29.821848)
(216.587296 -0.04051 -29.943274)
(218.011887 -0.009206 -29.997072)
(219.437622 0.022123 -29.983093)
(220.861313 0.053406 -29.901337)
(222.279709 0.084574 -29.751959)
(223.689621 0.115555 -29.535267)
(225.087814 0.146278 -29.251726)
(226.471115 0.176675 -28.901953)
(227.83638 0.206675 -28.486717)
(229.180496 0.23621 -28.006948)
(230.500381 0.265212 -27.46372)
(231.793015 0.293616 -26.858263)
(233.05542 0.321356 -26.191954)
(234.284714 0.348368 -25.466318)
(235.478073 0.374591 -24.683025)
(236.632751 0.399963 -23.843887)
(237.746078 0.424427 -22.950855)
(238.815521 0.447927 -22.006016)
(239.838608 0.470408 -21.011583)
(240.813004 0.491819 -19.969902)
(241.736511 0.512112 -18.883432)
(242.606995 0.53124 -17.754755)
(243.422531 0.54916 -16.586557)
(244.18129 0.565833 -15.381624)
(244.881592 0.581221 -14.142843)
(245.521927 0.595291 -12.873182)
(246.100937 0.608014 -11.575691)
(246.617416 0.619363 -10.253488)
(247.070343 0.629316 -8.909751)
(247.458862 0.637853 -7.547709)
(247.782288 0.64496 -6.170632)
(248.040146 0.650626 -4.781819)
(248.232117 0.654844 -3.384588)
(-17.232912 0 24.556602)
(1.007025 0 -29.983093)
(2.431055 0 -29.901337)
(3.849798 0 -29.751959)
(5.260037 0 -29.535267)
(6.658569 0 -29.251726)
(8.042212 0 -28.901953)
(71.468796 47.559616 1.936405)
(71.497055 47.675961 2.903965)
(71.625191 47.797169 4.35144)
(71.625191 47.797169 -4.35144)
(71.497055 47.675961 -2.903965)
(71.468796 47.559616 -1.936405)
)

// edges

270
(
(266 267)
(268 267)
(269 270)
(270 271)
(0 1)
(2 3)
(1 2)
(4 5)
(6 7)
(7 4)
(8 0)
(9 8)
(10 9)
(11 10)
(12 11)
(13 12)
(14 13)
(15 14)
(16 15)
(17 16)
(18 17)
(19 18)
(20 19)
(21 20)
(22 21)
(23 22)
(24 23)
(25 24)
(26 25)
(27 26)
(28 27)
(29 28)
(30 29)
(31 30)
(32 31)
(33 32)
(34 33)
(35 34)
(36 35)
(37 36)
(38 37)
(39 38)
(40 39)
(41 40)
(42 41)
(43 42)
(44 43)
(45 44)
(46 45)
(47 46)
(48 47)
(49 48)
(50 49)
(51 50)
(52 53)
(54 52)
(55 54)
(56 55)
(57 56)
(58 57)
(59 58)
(60 59)
(61 60)
(62 61)
(63 62)
(64 63)
(65 64)
(66 65)
(67 66)
(68 67)
(69 68)
(70 69)
(71 70)
(72 71)
(73 72)
(74 73)
(75 74)
(76 75)
(77 76)
(78 77)
(79 78)
(80 79)
(81 80)
(82 81)
(83 82)
(84 85)
(85 83)
(86 84)
(87 86)
(88 87)
(89 88)
(90 89)
(91 90)
(92 91)
(93 92)
(94 93)
(95 94)
(96 95)
(97 96)
(98 97)
(99 98)
(100 99)
(101 100)
(102 101)
(103 102)
(104 103)
(105 106)
(107 105)
(108 107)
(109 108)
(110 109)
(111 110)
(112 111)
(113 112)
(114 113)
(115 114)
(116 115)
(117 116)
(118 117)
(119 118)
(120 119)
(121 120)
(122 121)
(123 122)
(124 123)
(125 124)
(126 125)
(127 126)
(128 127)
(129 128)
(3 129)
(5 130)
(130 131)
(131 132)
(132 133)
(133 134)
(134 135)
(135 136)
(136 137)
(137 138)
(138 139)
(139 140)
(140 141)
(141 142)
(142 143)
(143 144)
(144 145)
(145 146)
(146 147)
(147 148)
(148 149)
(149 150)
(150 151)
(151 152)
(152 153)
(153 154)
(154 155)
(155 156)
(156 157)
(157 158)
(158 159)
(159 160)
(160 161)
(161 162)
(162 163)
(163 164)
(164 165)
(165 166)
(166 167)
(167 168)
(168 169)
(169 170)
(170 171)
(171 172)
(172 173)
(173 174)
(174 175)
(175 176)
(176 177)
(177 178)
(178 179)
(179 180)
(180 181)
(181 182)
(182 183)
(183 184)
(184 185)
(185 186)
(186 187)
(187 188)
(188 189)
(189 190)
(190 191)
(191 192)
(192 193)
(193 194)
(194 195)
(195 196)
(196 197)
(197 198)
(198 199)
(199 200)
(200 201)
(201 202)
(202 203)
(203 204)
(204 205)
(205 206)
(206 207)
(207 208)
(208 209)
(209 210)
(210 211)
(211 212)
(212 213)
(213 214)
(214 215)
(215 216)
(216 217)
(217 218)
(218 219)
(219 220)
(220 221)
(221 222)
(222 223)
(223 224)
(224 225)
(225 226)
(226 227)
(227 228)
(228 229)
(229 230)
(230 231)
(231 232)
(232 233)
(233 234)
(234 235)
(235 236)
(236 237)
(237 238)
(238 239)
(239 240)
(240 241)
(241 242)
(242 243)
(243 244)
(244 245)
(245 246)
(246 247)
(247 248)
(248 249)
(249 250)
(250 251)
(251 252)
(252 253)
(253 254)
(254 255)
(255 256)
(256 257)
(257 258)
(258 6)
(259 51)
(53 259)
(260 104)
(261 260)
(262 261)
(263 262)
(264 263)
(265 264)
(106 265)
)

// concaveStart mixedStart nonFeatureStart
0 0 0
// internalStart flatStart openStart multipleStart
4 4 4 270
// normals

272
(
(0.992098727 -0.1232909568 0.02322618834)
(0.991457862 -0.1207930085 -0.04919712342)
(0.9922330751 -0.1233076527 -0.01639352137)
(0.9956658633 -0.09004575159 0.02326480743)
(0.9944536967 -0.0929392889 -0.04923549283)
(0.9958011601 -0.09005798753 -0.01641975711)
(0.9897738357 -0.1244805395 0.06965880683)
(0.9854450059 -0.1242362333 0.1160323174)
(0.9790699728 -0.1228670666 0.1622518789)
(0.970404264 -0.1223817781 0.2081784446)
(0.959780549 -0.1201002331 0.2537660966)
(0.9468144277 -0.1193822505 0.2988148553)
(0.9319886959 -0.1161989987 0.3433582145)
(0.9148025633 -0.1152616435 0.3871059592)
(0.895863494 -0.1111962689 0.4301906438)
(0.8745807682 -0.1100578217 0.4722242642)
(0.8516574164 -0.1051388028 0.5134447168)
(0.8264456065 -0.1038224921 0.5533611386)
(0.7997077067 -0.09808561946 0.5923232184)
(0.7707773735 -0.09661941638 0.6297356024)
(0.7404040244 -0.09053709579 0.6660367219)
(0.7080335874 -0.08852383928 0.700608285)
(0.6742758281 -0.08234146891 0.7338746419)
(0.6387507456 -0.07962099029 0.765282943)
(0.6019146169 -0.07338099503 0.7951817551)
(0.5635395656 -0.07000489365 0.8231175329)
(0.5239589004 -0.06375171112 0.8493543371)
(0.4830759188 -0.05977725911 0.8735355379)
(0.4411236208 -0.05355928146 0.8958467249)
(0.3980964463 -0.04904428696 0.9160315919)
(0.3541681366 -0.04291132014 0.9341967403)
(0.3093902469 -0.03791658703 0.9501789345)
(0.2639020336 -0.03191967926 0.9640211879)
(0.2177912716 -0.02650703276 0.9756353516)
(0.1711734431 -0.02069775354 0.9850234796)
(0.1241613418 -0.01492814235 0.9921497426)
(0.07685808536 -0.009358585659 0.9969981202)
(0.02938461385 -0.003291937803 0.9995627582)
(-0.01815306982 0.001986138545 0.9998332468)
(-0.06563912582 0.008292370909 0.9978089706)
(-0.1129659049 0.01322891381 0.9935107952)
(-0.1600187348 0.01971968453 0.9869169867)
(-0.2066909329 0.02426580942 0.978105326)
(-0.2528623488 0.03088947548 0.9670090345)
(-0.2984546222 0.03499909753 0.9537818942)
(-0.3433144707 0.04170776672 0.9382940032)
(-0.387410397 0.04533660096 0.9207919292)
(-0.4305404694 0.0520865305 0.9010670883)
(-0.4727439603 0.05519314641 0.8794696496)
(-0.513745959 0.06194514363 0.8557031546)
(-0.6295163113 0.07316045103 0.7735352366)
(-0.6652084726 0.07904744823 0.742461574)
(-0.6995679507 0.0811381498 0.7099445633)
(-0.7321384395 0.08635734434 0.6756594664)
(-0.7632326006 0.08836872781 0.6400523146)
(-0.7924095417 0.09289482489 0.6028745058)
(-0.819967203 0.09480442704 0.5645050103)
(-0.8455089059 0.09861513919 0.5247758993)
(-0.8692935265 0.1004039579 0.4839915392)
(-0.8909906524 0.1034802216 0.442071828)
(-0.9107987539 0.1051332499 0.3992400652)
(-0.9284790448 0.1074597093 0.3554983464)
(-0.9441412371 0.108964106 0.311005061)
(-0.9576644316 0.1105282179 0.2658239071)
(-0.9690484555 0.1118747479 0.2200661983)
(-0.9783081453 0.1126669596 0.1738370759)
(-0.9853191821 0.1138492414 0.1272181575)
(-0.990242995 0.1138629222 0.08033707572)
(-0.9928222787 0.1148774809 0.03327291985)
(-0.9933715549 0.1141088141 -0.01386118348)
(-0.9914986345 0.1149542889 -0.06095875117)
(-0.9876685167 0.1134023939 -0.107938863)
(-0.9813599043 0.1140811025 -0.1546552303)
(-0.9731789583 0.1117476641 -0.2010849935)
(-0.9624890583 0.1122636608 -0.2470054314)
(-0.9500201056 0.1091534094 -0.2924847553)
(-0.9350397692 0.109513873 -0.3372051922)
(-0.9183802483 0.1056345873 -0.3813385024)
(-0.8992672973 0.1055285098 -0.4244785761)
(-0.8785158345 0.1012114958 -0.4668684628)
(-0.8554542119 0.1003692504 -0.5080591549)
(-0.803932568 0.09435093642 -0.5871884935)
(-0.8307577664 0.09591124233 -0.5483088246)
(-0.7755026485 0.08976663884 -0.6249300703)
(-0.7451322155 0.08750942537 -0.6611505743)
(-0.713214657 0.08281731545 -0.696036023)
(-0.6795525292 0.07988776404 -0.7292642218)
(-0.6444264617 0.0751100826 -0.7609684691)
(-0.6077549783 0.07153580471 -0.7908960204)
(-0.5697316998 0.06669873731 -0.8191196913)
(-0.5303651825 0.06251078167 -0.8454615162)
(-0.4897851702 0.05764496482 -0.8699353684)
(-0.4480644233 0.0528774445 -0.8924361313)
(-0.405297476 0.04801759449 -0.9129229248)
(-0.3615907715 0.04270795575 -0.9313582256)
(-0.317025368 0.03789257141 -0.9476597855)
(-0.2717270533 0.03208166206 -0.9618394749)
(-0.225777206 0.0273543482 -0.9737948413)
(-0.1792995836 0.02108564587 -0.9835685308)
(-0.1323867116 0.01649268771 -0.9910609214)
(-0.08516306971 0.009812941114 -0.9963187029)
(-0.0377273269 0.005405518124 -0.9992734507)
(0.335834838 -0.03937348546 -0.9410975987)
(0.3800981144 -0.04705960303 -0.9237482434)
(0.4235413744 -0.05056151283 -0.9044646138)
(0.4659112433 -0.05776226713 -0.8829440718)
(0.5072840426 -0.06132650295 -0.8595940671)
(0.5473703497 -0.06797983949 -0.8341249557)
(0.5862868147 -0.07155905757 -0.8069368452)
(0.6237271466 -0.07760480959 -0.7777801361)
(0.6598278038 -0.08115396178 -0.7470216221)
(0.6942912853 -0.08653439144 -0.7144728198)
(0.7272505294 -0.09001159995 -0.6804443985)
(0.7584406605 -0.09467357568 -0.6448291856)
(0.7879640004 -0.0980400536 -0.607865842)
(0.8156218776 -0.1019352944 -0.5695350284)
(0.8414537006 -0.1051562348 -0.5299979585)
(0.865360616 -0.1082427709 -0.4893204541)
(0.8872835959 -0.1112873577 -0.4475968549)
(0.9072590378 -0.113530135 -0.4049591915)
(0.9251010748 -0.1163725052 -0.3614490857)
(0.9410025261 -0.1177438169 -0.3172548493)
(0.9546338985 -0.1203627752 -0.2723727632)
(0.9663621028 -0.1208443848 -0.2270262561)
(0.9756959948 -0.1232233649 -0.1811996912)
(0.9831902666 -0.1228052806 -0.1351138879)
(0.9881858873 -0.1249328709 -0.08877178592)
(0.9934178168 -0.0908531671 0.06976204786)
(0.989133642 -0.09006901739 0.116199012)
(0.9825819492 -0.09020308457 0.1624688171)
(0.9740014972 -0.08862657905 0.208486002)
(0.9630982494 -0.08885652146 0.2540596006)
(0.9502545635 -0.08648333874 0.2992271658)
(0.9350561515 -0.08680996931 0.343706303)
(0.9180270514 -0.08363966858 0.3875961026)
(0.8986496179 -0.0840741752 0.430535013)
(0.8775408935 -0.08010682179 0.4727630245)
(0.8541428625 -0.08065353423 0.5137460246)
(0.8291170268 -0.07589532736 0.5538996797)
(0.8018874238 -0.07656538322 0.5925489867)
(0.7731409491 -0.07102448047 0.6302448698)
(0.7423496071 -0.07124876788 0.6662136849)
(0.7100926777 -0.0655160886 0.7010535152)
(0.6760066231 -0.06502537113 0.7340209443)
(0.6405091865 -0.05939908584 0.7656498747)
(0.6034236767 -0.05821016771 0.7952933061)
(0.5650246154 -0.05270922904 0.8233886817)
(0.5252483834 -0.05084129839 0.849428807)
(0.4842950988 -0.04548485557 0.8737215719)
(0.4421920445 -0.04296114127 0.8958909175)
(0.3990735828 -0.03777482138 0.9161404578)
(0.3550216802 -0.03462107811 0.9342167776)
(0.3101321623 -0.02963261488 0.9502315244)
(0.264537384 -0.02587785638 0.9640281682)
(0.2183098455 -0.02112151568 0.9756509073)
(0.1715852463 -0.01679634346 0.985026084)
(0.1244605768 -0.01230930925 0.9921481975)
(0.07704096678 -0.007447441967 0.9970001129)
(0.02946343753 -0.003271191754 0.999560506)
(-0.01820334598 0.002091297842 0.9998321182)
(-0.06578581944 0.005910656607 0.9978162607)
(-0.1132489728 0.01173574235 0.9934973289)
(-0.160394071 0.01514899343 0.9869368014)
(-0.2072017935 0.02139695905 0.9780642039)
(-0.2534656599 0.02434946633 0.9670378807)
(-0.2991807792 0.03098080241 0.9536933738)
(-0.3441412513 0.03341673956 0.9383230364)
(-0.3883255586 0.0403895873 0.9206367045)
(-0.4315814825 0.04225215086 0.9010838916)
(-0.4738163946 0.04952500941 0.8792299458)
(-0.5149846077 0.05075398638 0.8556955573)
(-0.5548729242 0.05828569101 0.829890846)
(-0.5935903649 0.05911436812 0.8025932782)
(-0.6307778688 0.06657451975 0.7731022659)
(-0.6666879434 0.06757701025 0.7422671579)
(-0.7008516402 0.07429356082 0.7094275476)
(-0.7336367741 0.07543654565 0.6753416996)
(-0.7645022965 0.08135221167 0.6394670095)
(-0.7938659308 0.08260444404 0.602456131)
(-0.8211887586 0.08766477295 0.563882887)
(-0.8468796859 0.08899829343 0.5242843706)
(-0.8704396439 0.09314947655 0.4833818379)
(-0.8922416621 0.09453952612 0.4415507835)
(-0.9118709772 0.09774428255 0.3986695075)
(-0.9295908888 0.09916895245 0.3550018285)
(-0.9451400928 0.101382519 0.3105346838)
(-0.9586396601 0.1028249219 0.2653997692)
(-0.9700027773 0.1040202549 0.219714357)
(-0.9791649093 0.1054662001 0.1735308648)
(-0.9862622224 0.1056233728 0.1270060302)
(-0.9910128194 0.1070630623 0.08019409276)
(-0.9937934436 0.1061645523 0.03322167042)
(-0.9940987305 0.1075935417 -0.0138327074)
(-0.9925394223 0.1056399305 -0.06087446289)
(-0.9883987297 0.1070565144 -0.1077351098)
(-0.9825090531 0.1040472489 -0.1544348747)
(-0.9739564026 0.1054556624 -0.2007187811)
(-0.963770678 0.1014081255 -0.246703207)
(-0.9508811201 0.1028152315 -0.2919830879)
(-0.9364665562 0.0977484904 -0.3368614282)
(-0.9193449084 0.09916637238 -0.3807505351)
(-0.9007542414 0.09368219578 -0.4241054619)
(-0.8796001111 0.09455620363 -0.4662218023)
(-0.8569365113 0.08911778959 -0.5076591723)
(-0.8319474485 0.08904417188 -0.5476628327)
(-0.8054071854 0.08367760416 -0.5867855863)
(-0.7767692284 0.08269420709 -0.6243326308)
(-0.7465825535 0.07742786006 -0.6607718345)
(-0.7145214676 0.07558655314 -0.6955183286)
(-0.6809489821 0.07045075541 -0.7289342733)
(-0.6457233514 0.06780515596 -0.7605549384)
(-0.6090750588 0.06283520115 -0.7906195736)
(-0.5709657918 0.0594386834 -0.8188193376)
(-0.5315598052 0.05466888629 -0.8452546872)
(-0.4909067871 0.05058613527 -0.869742243)
(-0.4491134925 0.04605538184 -0.892286934)
(-0.4062576741 0.04134250381 -0.9128228194)
(-0.3624577031 0.03708930576 -0.9312619378)
(-0.3177879124 0.03180983786 -0.9476280794)
(-0.2723885259 0.02787385019 -0.96178352)
(-0.2263198004 0.02208632572 -0.9738026197)
(-0.1797439142 0.01850746045 -0.9835393227)
(-0.1326920364 0.01226925537 -0.9910813735)
(-0.08538146936 0.009087474952 -0.9963068917)
(-0.03779063828 0.002453176454 -0.9992826675)
(0.00981073109 -0.00029289315 -0.9999518307)
(0.0574886884 -0.007272493524 -0.998319669)
(0.1049381925 -0.00954535294 -0.9944329349)
(0.1522478337 -0.01682305382 -0.9881991611)
(0.1991035144 -0.01858705761 -0.97980218)
(0.2455945843 -0.02611999851 -0.9690206633)
(0.2914234841 -0.02734122086 -0.9562033312)
(0.3366409375 -0.03470757086 -0.9409932326)
(0.3810259037 -0.03573838197 -0.9238733835)
(0.4245491309 -0.04246455844 -0.9044085342)
(0.4670852673 -0.04371624062 -0.8831309322)
(0.5085128414 -0.04977407874 -0.8596145829)
(0.5487965887 -0.05121782426 -0.8343854258)
(0.5877554537 -0.05658274183 -0.8070575692)
(0.6254245706 -0.05819635426 -0.7781113614)
(0.6615657745 -0.0628462949 -0.7472490008)
(0.6962671694 -0.06460785433 -0.7148691167)
(0.7292849459 -0.06852534056 -0.6807699651)
(0.7606939449 -0.07041759097 -0.6452798502)
(0.7903092133 -0.07358726768 -0.60827318)
(0.8181552958 -0.07559437041 -0.5700064939)
(0.8441100655 -0.07800246972 -0.5304656558)
(0.8681539635 -0.08011707652 -0.4897856161)
(0.8902484604 -0.08175532878 -0.4480778337)
(0.9102788021 -0.08396406615 -0.4053918327)
(0.9283482184 -0.08482670138 -0.3619033244)
(0.9442089363 -0.08712292987 -0.3176146719)
(0.9581228365 -0.08720705369 -0.2727554948)
(0.9696993096 -0.08958043359 -0.2272852722)
(0.9793701921 -0.08888678043 -0.1814749765)
(0.9865891102 -0.09133698147 -0.1352755834)
(0.9919766716 -0.08986940029 -0.08891441941)
(-0.5537437267 0.06289262652 0.8303086189)
(-0.592433281 0.06514755289 0.8029810732)
(0.009801762866 0.003652658451 -0.9999452903)
(0.05731574595 -0.007428875103 -0.9983284615)
(0.1047046356 -0.0102914505 -0.994450112)
(0.1518485106 -0.01824683847 -0.9882353377)
(0.1986540697 -0.02133659289 -0.9798373898)
(0.2449789029 -0.02897899258 -0.969095225)
(0.2907661362 -0.03224805029 -0.9562505515)
(-0.8995827153 -0.4297383755 0.07794784742)
(-0.520557936 -0.8457851283 0.1169057397)
(-0.8963206422 -0.4281800553 0.1152004628)
(-0.8963206422 -0.4281800553 -0.1152004628)
(-0.520557936 -0.8457851283 -0.1169057397)
(-0.8995827153 -0.4297383755 -0.07794784742)
)

// normal volume types

272
(
0
0
0
0
0
0
0
0
0
0
0
0
0
0
0
0
0
0
0
0
0
0
0
0
0
0
0
0
0
0
0
0
0
0
0
0
0
0
0
0
0
0
0
0
0
0
0
0
0
0
0
0
0
0
0
0
0
0
0
0
0
0
0
0
0
0
0
0
0
0
0
0
0
0
0
0
0
0
0
0
0
0
0
0
0
0
0
0
0
0
0
0
0
0
0
0
0
0
0
0
0
0
0
0
0
0
0
0
0
0
0
0
0
0
0
0
0
0
0
0
0
0
0
0
0
0
0
0
0
0
0
0
0
0
0
0
0
0
0
0
0
0
0
0
0
0
0
0
0
0
0
0
0
0
0
0
0
0
0
0
0
0
0
0
0
0
0
0
0
0
0
0
0
0
0
0
0
0
0
0
0
0
0
0
0
0
0
0
0
0
0
0
0
0
0
0
0
0
0
0
0
0
0
0
0
0
0
0
0
0
0
0
0
0
0
0
0
0
0
0
0
0
0
0
0
0
0
0
0
0
0
0
0
0
0
0
0
0
0
0
0
0
0
0
0
0
0
0
0
0
0
0
0
0
0
0
0
0
0
0
0
0
0
0
0
0
0
0
0
0
0
0
)

// normalDirections

270
(
2(1 -1)
2(1 -1)
2(1 -1)
2(1 -1)
1(1)
1(1)
1(1)
1(1)
1(1)
1(1)
1(1)
1(1)
1(1)
1(1)
1(1)
1(1)
1(1)
1(1)
1(1)
1(1)
1(1)
1(1)
1(1)
1(1)
1(1)
1(1)
1(1)
1(1)
1(1)
1(1)
1(1)
1(1)
1(1)
1(1)
1(1)
1(1)
1(1)
1(1)
1(1)
1(1)
1(1)
1(1)
1(1)
1(1)
1(1)
1(1)
1(1)
1(1)
1(1)
1(1)
1(1)
1(1)
1(1)
1(1)
1(1)
1(1)
1(1)
1(1)
1(1)
1(1)
1(1)
1(1)
1(1)
1(1)
1(1)
1(1)
1(1)
1(1)
1(1)
1(1)
1(1)
1(1)
1(1)
1(1)
1(1)
1(1)
1(1)
1(1)
1(1)
1(1)
1(1)
1(1)
1(1)
1(1)
1(1)
1(1)
1(1)
1(1)
1(1)
1(1)
1(1)
1(1)
1(1)
1(1)
1(1)
1(1)
1(1)
1(1)
1(1)
1(1)
1(1)
1(1)
1(1)
1(1)
1(1)
1(1)
1(1)
1(1)
1(1)
1(1)
1(1)
1(1)
1(1)
1(1)
1(1)
1(1)
1(1)
1(1)
1(1)
1(1)
1(1)
1(1)
1(1)
1(1)
1(1)
1(1)
1(1)
1(1)
1(1)
1(1)
1(1)
1(1)
1(1)
1(1)
1(1)
1(1)
1(1)
1(1)
1(1)
1(1)
1(1)
1(1)
1(1)
1(1)
1(1)
1(1)
1(1)
1(1)
1(1)
1(1)
1(1)
1(1)
1(1)
1(1)
1(1)
1(1)
1(1)
1(1)
1(1)
1(1)
1(1)
1(1)
1(1)
1(1)
1(1)
1(1)
1(1)
1(1)
1(1)
1(1)
1(1)
1(1)
1(1)
1(1)
1(1)
1(1)
1(1)
1(1)
1(1)
1(1)
1(1)
1(1)
1(1)
1(1)
1(1)
1(1)
1(1)
1(1)
1(1)
1(1)
1(1)
1(1)
1(1)
1(1)
1(1)
1(1)
1(1)
1(1)
1(1)
1(1)
1(1)
1(1)
1(1)
1(1)
1(1)
1(1)
1(1)
1(1)
1(1)
1(1)
1(1)
1(1)
1(1)
1(1)
1(1)
1(1)
1(1)
1(1)
1(1)
1(1)
1(1)
1(1)
1(1)
1(1)
1(1)
1(1)
1(1)
1(1)
1(1)
1(1)
1(1)
1(1)
1(1)
1(1)
1(1)
1(1)
1(1)
1(1)
1(1)
1(1)
1(1)
1(1)
1(1)
1(1)
1(1)
1(1)
1(1)
1(1)
1(1)
1(1)
1(1)
1(1)
1(1)
1(1)
1(1)
1(1)
1(1)
1(1)
1(1)
1(1)
1(1)
1(1)
1(1)
1(1)
1(1)
1(1)
1(1)
1(1)
1(1)
1(1)
)

// edgeNormals

270
(
2(266 267)
2(267 268)
2(269 270)
2(271 270)
1(0)
1(1)
1(2)
1(3)
1(4)
1(5)
1(6)
1(7)
1(8)
1(9)
1(10)
1(11)
1(12)
1(13)
1(14)
1(15)
1(16)
1(17)
1(18)
1(19)
1(20)
1(21)
1(22)
1(23)
1(24)
1(25)
1(26)
1(27)
1(28)
1(29)
1(30)
1(31)
1(32)
1(33)
1(34)
1(35)
1(36)
1(37)
1(38)
1(39)
1(40)
1(41)
1(42)
1(43)
1(44)
1(45)
1(46)
1(47)
1(48)
1(49)
1(50)
1(51)
1(52)
1(53)
1(54)
1(55)
1(56)
1(57)
1(58)
1(59)
1(60)
1(61)
1(62)
1(63)
1(64)
1(65)
1(66)
1(67)
1(68)
1(69)
1(70)
1(71)
1(72)
1(73)
1(74)
1(75)
1(76)
1(77)
1(78)
1(79)
1(80)
1(81)
1(82)
1(83)
1(84)
1(85)
1(86)
1(87)
1(88)
1(89)
1(90)
1(91)
1(92)
1(93)
1(94)
1(95)
1(96)
1(97)
1(98)
1(99)
1(100)
1(101)
1(102)
1(103)
1(104)
1(105)
1(106)
1(107)
1(108)
1(109)
1(110)
1(111)
1(112)
1(113)
1(114)
1(115)
1(116)
1(117)
1(118)
1(119)
1(120)
1(121)
1(122)
1(123)
1(124)
1(125)
1(126)
1(127)
1(128)
1(129)
1(130)
1(131)
1(132)
1(133)
1(134)
1(135)
1(136)
1(137)
1(138)
1(139)
1(140)
1(141)
1(142)
1(143)
1(144)
1(145)
1(146)
1(147)
1(148)
1(149)
1(150)
1(151)
1(152)
1(153)
1(154)
1(155)
1(156)
1(157)
1(158)
1(159)
1(160)
1(161)
1(162)
1(163)
1(164)
1(165)
1(166)
1(167)
1(168)
1(169)
1(170)
1(171)
1(172)
1(173)
1(174)
1(175)
1(176)
1(177)
1(178)
1(179)
1(180)
1(181)
1(182)
1(183)
1(184)
1(185)
1(186)
1(187)
1(188)
1(189)
1(190)
1(191)
1(192)
1(193)
1(194)
1(195)
1(196)
1(197)
1(198)
1(199)
1(200)
1(201)
1(202)
1(203)
1(204)
1(205)
1(206)
1(207)
1(208)
1(209)
1(210)
1(211)
1(212)
1(213)
1(214)
1(215)
1(216)
1(217)
1(218)
1(219)
1(220)
1(221)
1(222)
1(223)
1(224)
1(225)
1(226)
1(227)
1(228)
1(229)
1(230)
1(231)
1(232)
1(233)
1(234)
1(235)
1(236)
1(237)
1(238)
1(239)
1(240)
1(241)
1(242)
1(243)
1(244)
1(245)
1(246)
1(247)
1(248)
1(249)
1(250)
1(251)
1(252)
1(253)
1(254)
1(255)
1(256)
1(257)
1(258)
1(259)
1(260)
1(261)
1(262)
1(263)
1(264)
1(265)
)

// featurePointNormals
0()
// featurePointEdges
0()
// regionEdges

266
(
4
5
6
7
8
9
10
11
12
13
14
15
16
17
18
19
20
21
22
23
24
25
26
27
28
29
30
31
32
33
34
35
36
37
38
39
40
41
42
43
44
45
46
47
48
49
50
51
52
53
54
55
56
57
58
59
60
61
62
63
64
65
66
67
68
69
70
71
72
73
74
75
76
77
78
79
80
81
82
83
84
85
86
87
88
89
90
91
92
93
94
95
96
97
98
99
100
101
102
103
104
105
106
107
108
109
110
111
112
113
114
115
116
117
118
119
120
121
122
123
124
125
126
127
128
129
130
131
132
133
134
135
136
137
138
139
140
141
142
143
144
145
146
147
148
149
150
151
152
153
154
155
156
157
158
159
160
161
162
163
164
165
166
167
168
169
170
171
172
173
174
175
176
177
178
179
180
181
182
183
184
185
186
187
188
189
190
191
192
193
194
195
196
197
198
199
200
201
202
203
204
205
206
207
208
209
210
211
212
213
214
215
216
217
218
219
220
221
222
223
224
225
226
227
228
229
230
231
232
233
234
235
236
237
238
239
240
241
242
243
244
245
246
247
248
249
250
251
252
253
254
255
256
257
258
259
260
261
262
263
264
265
266
267
268
269
)



// ************************************************************************* //
