/*--------------------------------*- C++ -*----------------------------------*\
| =========                 |                                                 |
| \\      /  F ield         | OpenFOAM: The Open Source CFD Toolbox           |
|  \\    /   O peration     | Version:  v2006                                 |
|   \\  /    A nd           | Website:  www.openfoam.com                      |
|    \\/     M anipulation  |                                                 |
\*---------------------------------------------------------------------------*/
FoamFile
{
    version     2.0;
    format      ascii;
    class       featureEdgeMesh;
    location    "constant/triSurface";
    object      housing.eMesh;
}
// * * * * * * * * * * * * * * * * * * * * * * * * * * * * * * * * * * * * * //


// points:

12168
(
(50.6 205.361 85)
(59.6 243.776 69.9767)
(59.6 205.361 85)
(62.1 172.724 87.4062)
(65.1 172.724 65)
(62.1 173.724 82)
(26.6437 36.0123 -13.0164)
(22.2603 43.3756 -6.16577)
(21.9643 42.9088 -0.0382499)
(28.2086 74.002 119.177)
(27.9988 78.9924 123.636)
(25.3866 80.5061 121.632)
(80.8809 61.0001 -71.519)
(79.2302 59.1739 -72.688)
(78.7212 67.3979 -82.5756)
(81.956 47.7283 -49.7794)
(80.4959 42.8875 -44.6947)
(80.2435 45.6204 -50.6187)
(70.129 142.789 -127.692)
(68.2334 142.516 -128.854)
(63.9681 226.172 75.7797)
(64.2636 229.989 73.5983)
(48.2926 195.275 84.5413)
(44.2749 234.623 65.7266)
(36.5203 224.056 -104.568)
(37.5876 168.255 -126.228)
(36.3842 174.385 -124.254)
(72.6124 168.255 -126.228)
(73.0963 155.86 -126.202)
(72.1277 180.504 -124.982)
(71.642 192.497 -122.497)
(71.1545 204.129 -118.842)
(71.9814 214.829 -112.838)
(73.7457 203.392 -116.049)
(72.5084 203.775 -117.501)
(74.3022 192.021 -119.544)
(73.0327 192.268 -121.078)
(74.8567 180.312 -121.895)
(73.5551 180.412 -123.499)
(70.6646 215.296 -114.092)
(70.1715 225.895 -108.316)
(69.6746 235.82 -101.589)
(73.1862 214.324 -111.481)
(74.2708 213.783 -110.031)
(75.8364 202.55 -112.855)
(77.2973 191.181 -114.334)
(69.1732 244.967 -93.9804)
(41.0267 244.967 -93.9804)
(70.3764 244.241 -93.036)
(70.1043 248.46 -88.9801)
(68.7517 276.222 -33.6822)
(69.3777 273.23 -44.3554)
(73.2638 259.471 -61.439)
(73.8736 256.974 -59.6656)
(73.1943 262.003 -50.6399)
(72.5754 264.543 -52.0884)
(71.8854 268.63 -42.3049)
(72.5129 266.086 -41.1743)
(70.1503 274.074 -32.9726)
(71.1966 271.691 -32.1894)
(71.8323 269.18 -31.3651)
(68.1301 278.089 -22.8083)
(69.4852 276.003 -22.3492)
(70.512 273.688 -21.8427)
(71.155 271.243 -21.3087)
(70.4838 272.233 -11.1017)
(69.8344 274.581 -11.3657)
(68.8277 276.799 -11.6157)
(67.5155 278.795 -11.8423)
(60.6379 273.145 31.6714)
(60.9901 277.342 21.2145)
(58.8693 273.772 31.8663)
(62.9605 278.057 15.6583)
(63.1864 279.454 10.2023)
(64.8535 278.151 10.0765)
(66.9107 278.308 -0.893149)
(65.1193 279.208 4.61131)
(56.2564 229.288 79.7727)
(56.0077 206.635 85.7747)
(55.9123 196.458 86.4106)
(56.7255 196.414 86.3364)
(43.8527 241.472 60.0214)
(58.334 196.23 86.0378)
(60.2921 268.035 41.5371)
(61.8607 267.281 41.2085)
(61.4354 261.484 50.3036)
(62.8145 260.659 49.828)
(62.3279 254.311 58.0393)
(63.5165 253.465 57.424)
(62.9829 246.692 64.652)
(63.9685 245.88 63.9328)
(63.3998 238.785 70.0929)
(58.5175 201.357 85.7587)
(57.5083 233.291 77.588)
(57.4063 229.167 79.6139)
(58.5362 228.964 79.3488)
(58.3893 224.743 81.1062)
(59.446 224.483 80.7529)
(59.2581 220.16 82.2606)
(60.2392 219.854 81.8324)
(60.0144 215.423 83.1119)
(60.9062 215.092 82.6347)
(60.65 210.548 83.7093)
(61.438 210.219 83.2207)
(61.159 205.558 84.1138)
(61.8582 205.25 83.6417)
(57.612 237.308 75.2725)
(58.6849 233.066 77.3119)
(59.6353 228.676 78.9768)
(60.4648 224.143 80.2964)
(61.1626 219.483 81.316)
(61.7169 214.719 82.096)
(62.1498 209.864 82.6878)
(62.496 204.919 83.1359)
(57.2065 220.556 82.8278)
(58.1 215.902 83.8134)
(57.9572 211.262 84.7785)
(58.8861 211.08 84.5011)
(58.7015 206.304 85.2489)
(59.567 206.096 84.9307)
(59.3438 201.181 85.4849)
(60.138 200.967 85.1547)
(57.3057 224.926 81.3579)
(58.2439 220.392 82.5918)
(59.0716 215.695 83.5075)
(59.7904 210.84 84.1422)
(60.3941 205.842 84.5469)
(67.8988 265.192 29.1469)
(68.5295 268.508 19.4146)
(67.868 270.402 19.7984)
(67.6946 259.433 37.7457)
(66.2565 241.999 60.4913)
(65.9422 243.034 61.4131)
(66.5218 249.141 54.2915)
(66.0554 250.319 55.1482)
(66.6628 256.003 47.1483)
(65.9994 257.322 47.9047)
(66.6131 262.506 39.1002)
(65.7155 263.925 39.7225)
(66.315 268.503 30.193)
(65.1673 269.948 30.654)
(65.7371 273.787 20.4879)
(64.3295 275.197 20.7781)
(68.1807 276.424 -0.876984)
(69.1668 274.329 -0.859167)
(69.8214 272.109 -0.840315)
(66.3179 276.611 9.92698)
(67.5465 274.86 9.7578)
(68.5114 272.913 9.5715)
(69.1701 270.845 9.37396)
(65.3656 236.403 67.59)
(65.4537 244.035 62.3012)
(65.3934 251.449 55.9647)
(65.1253 258.557 48.6126)
(64.6078 265.206 40.2892)
(63.8151 271.218 31.0613)
(62.7365 276.387 21.0217)
(67.1056 254.637 46.3579)
(67.2769 260.993 38.4364)
(67.2356 266.9 29.6863)
(66.925 272.184 20.1596)
(64.5046 225.532 74.9686)
(64.2182 221.64 76.9453)
(64.6564 221.028 76.1417)
(64.3895 217.051 77.9374)
(62.2945 272.289 31.4025)
(63.3102 266.333 40.79)
(64.0578 259.674 49.2578)
(64.5434 252.506 56.7279)
(64.7942 244.989 63.1451)
(64.8568 237.245 68.4738)
(64.5598 233.678 71.1651)
(65.0782 232.907 70.297)
(64.7912 229.286 72.7545)
(65.1898 228.548 71.8753)
(64.9231 224.859 74.123)
(64.9838 220.391 75.3148)
(57.9342 248.805 66.5212)
(57.7175 241.227 72.6595)
(58.9884 240.952 72.3691)
(58.8356 237.058 74.9879)
(60.0194 236.707 74.5891)
(59.8264 232.747 76.9247)
(60.9198 232.333 76.4249)
(60.6916 228.3 78.4963)
(61.6772 227.844 77.917)
(61.4195 223.731 79.7458)
(62.2753 223.266 79.1238)
(61.9959 219.065 80.7327)
(62.7333 218.613 80.0958)
(62.4414 214.316 81.5081)
(63.0843 213.882 80.8779)
(62.7901 209.482 82.1167)
(63.3598 209.07 81.5124)
(63.6459 213.415 80.2111)
(63.932 217.603 78.6908)
(63.3785 218.126 79.4131)
(63.6731 222.22 77.7158)
(63.0254 222.762 78.4444)
(63.3181 226.772 76.5469)
(62.5552 227.331 77.2624)
(62.8358 231.266 75.1414)
(61.9358 231.832 75.8224)
(62.1954 235.702 73.4548)
(61.1495 236.252 74.0747)
(61.381 240.066 71.4382)
(60.2145 240.565 71.9624)
(60.6119 248.005 65.8162)
(59.301 248.471 66.2271)
(59.623 255.574 58.951)
(58.1585 255.975 59.2376)
(58.3896 262.611 50.9435)
(63.1173 235.082 72.7539)
(62.4564 239.465 70.8068)
(61.8502 247.408 65.2878)
(61.019 255.018 58.5515)
(59.9536 262.136 50.6756)
(58.6268 268.585 41.7744)
(64.2168 198.87 82.007)
(63.5588 194.489 83.3622)
(71.462 29.6635 57.1701)
(74.6975 36.031 70.1787)
(74.0322 27.4216 42.6075)
(77.1095 32.8154 55.9075)
(79.6801 34.7178 55.1456)
(89.3326 83.9298 117.098)
(82.0611 36.8214 54.3032)
(81.6009 33.1955 40.9091)
(81.1398 30.7776 27.2872)
(82.9985 32.3724 20.1024)
(83.2468 33.112 26.8368)
(75.6319 52.0317 -69.3806)
(75.8478 48.3833 -63.8021)
(75.1991 60.0683 -79.9403)
(75.4156 55.9298 -74.7642)
(78.6249 27.9016 20.7451)
(78.4131 27.4983 13.79)
(78.2011 27.4331 6.85442)
(77.9888 27.7138 -0.0427387)
(77.7762 28.3453 -6.88351)
(77.5632 29.3209 -13.6543)
(77.3499 30.6313 -20.3427)
(77.1363 32.2669 -26.9361)
(76.9224 34.2184 -33.422)
(76.7081 36.4764 -39.7879)
(76.4935 39.0312 -46.0214)
(76.2786 41.8736 -52.11)
(76.0633 44.9942 -58.041)
(74.765 69.0286 -89.6201)
(74.9822 64.4377 -84.8964)
(74.5474 73.8315 -94.0987)
(71.3171 105.681 -116.635)
(70.922 117.759 -121.514)
(75.502 95.9004 -108.017)
(73.674 94.9335 -109.375)
(73.2354 106.413 -115.365)
(70.5259 130.17 -125.21)
(80.9089 30.041 20.4376)
(80.6777 29.6298 13.587)
(80.4462 29.5516 6.75419)
(80.2143 29.8143 -0.0421183)
(79.9821 30.4227 -6.78432)
(79.7495 31.3704 -13.459)
(79.5166 32.6482 -20.0538)
(79.2833 34.2468 -26.5564)
(79.0497 36.1572 -32.9544)
(78.8157 38.3699 -39.2353)
(78.5814 40.8758 -45.3869)
(78.3466 43.6658 -51.3968)
(77.8762 50.0608 -62.9418)
(77.4042 57.4811 -73.7715)
(76.9308 65.8531 -83.7868)
(81.2506 36.4055 -26.1423)
(80.9994 38.2711 -32.4443)
(82.4911 42.6609 -37.9823)
(80.7478 40.4347 -38.6325)
(79.7376 51.8908 -62.0032)
(81.4193 53.8646 -60.9905)
(88.2355 42.9084 -0.03825)
(76.6936 70.3729 -88.4582)
(74.3295 78.8369 -98.32)
(76.456 75.103 -92.8888)
(78.466 71.8403 -87.1897)
(80.3408 69.0649 -81.2684)
(71.7113 94.0599 -110.601)
(73.8928 89.4031 -105.962)
(74.1113 84.0324 -102.276)
(75.9797 85.1538 -100.983)
(76.218 80.034 -97.0665)
(77.9546 81.341 -95.698)
(78.2105 76.4911 -91.5679)
(79.7989 77.9893 -90.1421)
(79.2552 87.7003 -98.048)
(77.6983 86.3783 -99.5717)
(77.1845 96.9565 -106.534)
(75.023 107.223 -113.959)
(72.7958 118.348 -120.216)
(74.0616 131.112 -122.448)
(71.9136 143.098 -126.382)
(73.5794 143.439 -124.932)
(71.6925 149.379 -127.165)
(78.1628 109.063 -110.766)
(76.1528 119.712 -117.211)
(77.6145 120.482 -115.515)
(75.6351 131.654 -120.862)
(77.0649 132.238 -119.149)
(75.1164 143.812 -123.347)
(76.5142 144.216 -121.634)
(74.5968 156.07 -124.635)
(75.9625 156.298 -122.941)
(74.0763 168.309 -124.695)
(75.4099 168.368 -123.037)
(72.3551 130.617 -123.899)
(74.5429 119 -118.78)
(76.6693 108.107 -112.424)
(78.7098 98.0968 -104.933)
(75.4416 191.757 -117.904)
(77.0461 180.092 -118.368)
(76.0233 180.205 -120.182)
(77.6485 168.498 -119.393)
(76.6037 168.431 -121.267)
(78.25 156.797 -119.218)
(77.1834 156.54 -121.132)
(78.8506 145.101 -117.871)
(77.7622 144.646 -119.805)
(79.4501 133.522 -115.385)
(78.34 132.863 -117.319)
(80.0485 122.171 -111.792)
(78.9166 121.303 -113.706)
(79.4919 110.082 -108.997)
(79.1544 157.068 -117.199)
(78.5364 168.568 -117.416)
(79.2589 168.641 -115.339)
(77.9175 179.973 -116.453)
(76.4425 191.477 -116.167)
(74.8578 202.983 -114.498)
(24.9293 90.9958 129.661)
(25.1578 85.6406 125.766)
(22.7579 87.2016 123.498)
(20.8674 83.9298 117.098)
(23.25 77.3227 115.159)
(25.6156 75.5915 117.254)
(25.8448 70.8961 112.627)
(28.4186 69.2355 114.466)
(28.6286 64.6923 109.497)
(27.7892 84.2073 127.848)
(27.3708 95.3134 135.551)
(21.651 70.3254 103.787)
(29.0486 56.282 98.7931)
(28.8386 60.3726 104.269)
(26.3032 62.1609 102.61)
(26.074 66.4192 107.747)
(23.7427 68.3001 105.84)
(23.4963 72.7047 110.625)
(21.1285 79.1867 112.904)
(26.5325 58.127 97.2287)
(25.5848 34.4554 13.1271)
(33.3464 93.1628 139.359)
(30.2583 94.1744 137.568)
(33.5116 87.3441 135.504)
(30.4463 88.4276 133.77)
(33.6771 81.7589 131.406)
(30.6346 82.9106 129.733)
(33.8428 76.4066 127.061)
(30.8231 77.6229 125.45)
(34.0087 71.2869 122.463)
(31.0119 72.564 120.917)
(34.1746 66.3991 117.606)
(31.2007 67.7333 116.129)
(34.3406 61.7427 112.487)
(31.3896 63.1301 111.081)
(34.5065 57.3182 107.102)
(31.5785 58.7549 105.769)
(31.7673 54.6132 100.208)
(31.9562 50.7128 94.4163)
(32.1451 47.0616 88.4134)
(22.8194 39.81 6.26881)
(24.2178 37.0012 6.40161)
(24.4952 37.2014 -0.0399354)
(24.773 37.7296 -6.4353)
(25.3298 39.7444 -19.0371)
(25.849 34.3483 6.52714)
(26.1135 34.5706 -0.0407127)
(26.3784 35.1273 -6.55958)
(23.3955 40.4847 -6.30385)
(25.0512 38.5801 -12.7717)
(26.9094 37.2169 -19.3992)
(40.071 142.789 -127.692)
(38.5075 149.379 -127.165)
(57.6891 216.476 83.7966)
(55.1 213.993 84.6711)
(53.6527 226.828 80.7734)
(51.9634 213.714 84.2414)
(50.9884 208.014 84.8398)
(52.6537 211.104 84.9113)
(59.2116 208.014 84.8398)
(58.2366 213.714 84.2414)
(56.5472 226.828 80.7734)
(53.8016 216.62 84.0142)
(53.1538 216.561 83.9237)
(56.4352 219.241 83.3384)
(53.7648 219.241 83.3384)
(56.3984 216.62 84.0142)
(56.9919 213.894 84.5169)
(55.1 243.279 71.5534)
(92.7753 158.329 143.681)
(53.6559 210.887 82.0543)
(53.5975 215.377 81.1499)
(52.2526 210.57 81.6927)
(52.1398 215.033 80.7563)
(52.8577 215.235 80.9853)
(51.5844 210.324 81.4221)
(51.447 214.766 80.4611)
(50.9543 210.028 81.0978)
(50.7979 214.445 80.1072)
(50.385 209.698 80.7359)
(50.2172 214.087 79.7122)
(49.8738 209.34 80.3425)
(49.7018 213.699 79.282)
(47.8287 223.64 72.2823)
(47.991 224.236 72.8887)
(48.2009 220.421 74.7931)
(49.0574 217.452 77.4889)
(48.6868 216.97 76.9776)
(48.8407 221.48 75.9072)
(48.477 220.963 75.3563)
(48.6085 225.368 74.0776)
(48.2518 224.815 73.4909)
(48.3642 229.125 71.9957)
(48.0152 228.532 71.3779)
(48.1107 232.757 69.6564)
(47.77 232.121 69.0133)
(47.85 236.27 67.0548)
(47.5183 235.586 66.3929)
(47.5835 239.673 64.1856)
(47.2615 238.934 63.5123)
(47.3122 242.966 61.0516)
(47.0005 242.165 60.3748)
(47.0368 246.136 57.6693)
(46.7359 245.268 56.9972)
(46.7578 249.172 54.0563)
(46.4754 252.061 50.2299)
(46.1898 254.79 46.2072)
(45.9011 257.349 42.0056)
(45.6093 259.723 37.6422)
(45.3145 261.902 33.1339)
(45.0167 263.874 28.498)
(44.7157 265.627 23.7513)
(44.4117 267.148 18.911)
(49.4231 208.953 79.928)
(49.2537 213.279 78.8274)
(49.5052 217.904 77.982)
(49.2892 221.965 76.4364)
(49.0579 225.889 74.6397)
(48.8145 229.683 72.5863)
(48.5616 233.357 70.2706)
(48.301 236.919 67.6865)
(48.0345 240.377 64.8283)
(47.763 243.731 61.698)
(47.4872 246.97 58.3121)
(47.2076 250.079 54.688)
(46.9246 253.046 50.8431)
(46.6381 255.857 46.7946)
(46.3484 258.5 42.5598)
(46.0554 260.96 38.1559)
(45.759 263.226 33.6001)
(45.4594 265.285 28.9096)
(45.1563 267.123 24.1015)
(44.8498 268.729 19.1931)
(44.5398 270.09 14.2016)
(44.2263 271.192 9.14394)
(43.9091 272.025 4.0374)
(43.5883 272.575 -1.10099)
(43.2637 272.835 -6.25693)
(42.9357 272.807 -11.4183)
(42.6048 272.499 -16.5726)
(42.2713 271.912 -21.7071)
(41.9357 271.054 -26.8095)
(41.5983 269.929 -31.8671)
(41.2596 268.542 -36.8674)
(39.8991 260.47 -56.0446)
(40.2393 262.856 -51.399)
(40.5798 265 -46.6459)
(40.92 266.897 -41.7978)
(50.0275 218.323 78.4473)
(49.8198 222.415 76.9347)
(49.5975 226.371 75.1681)
(49.3634 230.202 73.141)
(49.1198 233.917 70.847)
(48.8686 237.525 68.2795)
(48.6114 241.035 65.4317)
(48.3494 244.449 62.3053)
(48.0834 247.754 58.9164)
(47.8138 250.935 55.2825)
(47.5409 253.977 51.4208)
(47.2648 256.868 47.3487)
(46.9856 259.592 43.0834)
(46.7031 262.137 38.6421)
(46.4173 264.487 34.0422)
(46.1281 266.631 29.3008)
(45.8355 268.553 24.4352)
(45.5393 270.242 19.4628)
(45.2395 271.682 14.4007)
(44.9358 272.862 9.26616)
(44.6283 273.768 4.0765)
(44.3169 274.387 -1.15119)
(44.0013 274.711 -6.40338)
(43.6819 274.742 -11.668)
(43.3592 274.486 -16.9321)
(43.0337 273.946 -22.1826)
(50.6225 218.708 78.874)
(50.4308 222.827 77.3913)
(50.2256 226.814 75.652)
(50.009 230.677 73.6492)
(49.7831 234.429 71.3755)
(49.5496 238.078 68.8234)
(49.3102 241.637 65.9854)
(49.0662 245.105 62.8627)
(48.8182 248.469 59.4712)
(48.567 251.715 55.8283)
(48.3128 254.826 51.9512)
(48.0556 257.787 47.8574)
(47.7955 260.586 43.564)
(47.5325 263.205 39.0883)
(47.2664 265.632 34.4478)
(46.9971 267.852 29.6597)
(46.7246 269.85 24.7414)
(46.4486 271.613 19.7102)
(46.1691 273.126 14.5836)
(45.886 274.376 9.37874)
(45.599 275.349 4.11308)
(45.3081 276.031 -1.19621)
(50.0146 204.821 81.1703)
(50.5258 205.147 81.5257)
(51.2932 219.053 79.256)
(51.1251 223.197 77.7998)
(50.9444 227.21 76.085)
(50.753 231.102 74.104)
(50.5525 234.886 71.8487)
(50.3445 238.573 69.3109)
(50.1307 242.174 66.482)
(49.9122 245.69 63.3629)
(49.6899 249.108 59.9694)
(49.4644 252.41 56.3186)
(49.2359 255.581 52.4278)
(49.0047 258.605 48.3144)
(48.7708 261.468 43.9957)
(48.5342 264.154 39.4891)
(48.2947 266.647 34.8121)
(48.0524 268.933 29.982)
(47.8072 270.997 25.0163)
(47.5589 272.825 19.9325)
(47.3074 274.401 14.748)
(47.0527 275.712 9.48036)
(51.088 205.448 81.8531)
(51.703 205.717 82.1465)
(51.1946 200.694 82.3812)
(52.0132 219.34 79.5748)
(51.8742 223.504 78.1407)
(51.7241 227.539 76.4465)
(51.5641 231.455 74.484)
(51.3956 235.267 72.2446)
(51.22 238.986 69.7191)
(51.0389 242.623 66.8986)
(50.8533 246.182 63.7831)
(50.664 249.644 60.3883)
(50.4717 252.995 56.7313)
(50.2765 256.218 52.8294)
(50.0787 259.297 48.6999)
(49.8784 262.215 44.3602)
(49.6756 264.957 39.8277)
(49.4702 267.507 35.12)
(49.2623 269.85 30.2546)
(49.0518 271.971 25.2491)
(48.8387 273.854 20.1209)
(52.7606 219.558 79.8215)
(52.6535 223.738 78.4043)
(52.5373 227.79 76.7259)
(52.4128 231.725 74.7778)
(52.2813 235.559 72.5509)
(52.1438 239.304 70.0355)
(52.0016 242.972 67.2218)
(51.8556 246.565 64.1096)
(51.7064 250.065 60.7144)
(51.5546 253.457 57.0532)
(51.4004 256.722 53.1431)
(51.2439 259.846 49.0016)
(51.0852 262.81 44.646)
(50.9243 265.598 40.0938)
(50.7612 268.196 35.3625)
(50.596 270.586 30.4698)
(50.4286 272.753 25.4332)
(53.5315 219.711 79.9986)
(53.4584 223.902 78.5933)
(53.3788 227.966 76.9261)
(53.2933 231.917 74.9883)
(53.2026 235.767 72.7704)
(53.1076 239.532 70.2623)
(53.009 243.222 67.4535)
(52.9078 246.84 64.3438)
(52.8042 250.369 60.9484)
(52.6986 253.791 57.2843)
(52.5911 257.089 53.3686)
(52.482 260.246 49.2186)
(52.3712 263.244 44.8518)
(51.7998 200.934 82.6416)
(52.3501 205.941 82.391)
(52.944 210.757 81.903)
(53.0186 206.111 82.5814)
(52.4304 201.133 82.8582)
(51.8714 195.965 82.9156)
(54.4237 201.451 83.2221)
(54.4399 196.411 83.4146)
(53.7804 196.357 83.3518)
(53.8024 191.122 83.3334)
(53.1595 191.047 83.2481)
(54.3773 210.964 82.145)
(54.4027 206.298 82.8008)
(53.7063 206.229 82.7186)
(53.7481 201.39 83.149)
(53.0803 201.284 83.0271)
(53.1279 196.267 83.247)
(52.4913 196.136 83.1018)
(54.4509 191.165 83.3846)
(71.2111 253.905 -64.0897)
(55.1 191.18 83.4016)
(60.5208 194.998 81.8793)
(71.9641 107.602 -112.763)
(72.1891 101.924 -109.963)
(73.8327 102.798 -108.616)
(74.0777 97.3245 -105.565)
(75.5916 98.3618 -104.123)
(75.8541 93.1143 -100.837)
(77.2235 94.3228 -99.3162)
(77.501 89.3203 -95.8114)
(78.7064 90.7003 -94.2351)
(78.9961 85.9605 -90.5284)
(80.0202 87.5167 -88.9137)
(80.3193 83.0552 -85.023)
(71.7388 113.392 -115.285)
(73.5875 108.398 -111.396)
(75.3286 103.751 -107.147)
(76.9455 99.4801 -102.568)
(78.4161 95.608 -97.6986)
(79.7206 92.158 -92.5711)
(71.5132 119.279 -117.524)
(73.3419 114.11 -113.902)
(75.0654 109.266 -109.905)
(76.6671 104.778 -105.564)
(78.1255 100.67 -100.915)
(77.8344 105.871 -103.88)
(76.3883 110.202 -108.298)
(74.8017 114.893 -112.394)
(73.096 119.92 -116.13)
(71.2874 125.248 -119.478)
(71.0612 131.283 -121.142)
(72.8498 125.811 -118.076)
(74.5378 120.618 -114.609)
(76.1092 115.738 -110.768)
(77.5429 111.198 -106.589)
(77.2511 116.636 -109.038)
(75.8297 121.371 -112.969)
(75.5499 127.088 -114.898)
(74.2735 126.425 -116.547)
(74.0089 132.3 -118.203)
(72.6033 131.77 -119.736)
(72.3566 137.78 -121.107)
(75.2698 132.873 -116.549)
(73.7441 138.228 -119.574)
(72.1097 143.828 -122.184)
(74.9895 138.712 -117.92)
(73.4791 144.195 -120.656)
(71.8626 149.898 -122.964)
(70.1547 155.784 -124.826)
(74.7089 144.59 -119.006)
(73.2139 150.185 -121.444)
(71.6154 155.975 -123.444)
(74.4282 150.494 -119.804)
(72.9486 156.184 -121.936)
(71.3682 162.044 -123.619)
(74.1474 156.409 -120.309)
(72.6834 162.177 -122.128)
(71.1212 168.091 -123.486)
(72.4182 168.15 -122.015)
(72.1532 174.088 -121.594)
(14.0636 159.361 132.297)
(14.8217 159.003 136.253)
(88.609 150.385 148.664)
(85.9905 142.715 149.697)
(83.1408 135.056 150.204)
(90.7106 150.833 145.479)
(88.3633 143.272 146.785)
(85.7602 135.691 147.576)
(82.9279 128.141 147.834)
(79.8932 120.671 147.544)
(79.6993 114.118 144.713)
(82.7139 121.457 145.264)
(85.5285 128.894 145.262)
(88.1162 136.381 144.72)
(90.4506 143.868 143.658)
(92.5048 151.309 142.094)
(94.2514 158.657 140.051)
(95.3783 159.003 136.254)
(93.9719 151.811 138.525)
(92.233 144.503 140.334)
(90.1894 137.122 141.654)
(87.8679 129.713 142.466)
(85.2956 122.324 142.75)
(82.4989 115.003 142.489)
(79.5044 107.798 141.669)
(76.3379 100.759 140.28)
(95.0926 152.337 134.791)
(93.6911 145.171 136.83)
(91.9601 137.909 138.396)
(89.9269 130.592 139.465)
(87.6184 123.266 140.018)
(85.0617 115.979 140.036)
(82.2829 108.777 139.504)
(79.3088 101.71 138.408)
(76.1649 94.8255 136.739)
(93.4093 138.738 134.96)
(91.686 131.526 136.274)
(89.6633 124.277 137.085)
(87.3679 117.039 137.371)
(84.8269 109.857 137.115)
(82.0662 102.779 136.303)
(79.1127 95.8526 134.924)
(75.9917 89.1252 132.968)
(72.581 77.3496 126.129)
(75.8184 83.6566 128.962)
(78.9163 90.2243 131.212)
(81.849 97.0071 132.883)
(84.5913 103.958 133.982)
(87.1165 111.031 134.519)
(89.3988 118.177 134.508)
(91.4108 125.353 133.966)
(93.1264 132.51 132.911)
(94.5181 139.609 131.362)
(95.5581 146.602 129.34)
(72.433 72.2875 121.578)
(75.645 78.418 124.715)
(78.7197 84.8237 127.267)
(81.6314 91.4598 129.238)
(84.3552 98.2806 130.632)
(86.8644 105.24 131.459)
(89.1334 112.291 131.731)
(91.1348 119.388 131.465)
(92.8426 126.485 130.678)
(94.2294 133.543 129.388)
(95.2675 140.513 127.615)
(94.976 134.616 125.718)
(93.9398 127.674 127.233)
(92.5579 120.663 128.256)
(90.8579 113.631 128.767)
(88.8673 106.616 128.749)
(86.6117 99.6647 128.185)
(84.1187 92.8228 127.06)
(81.4136 86.1358 125.362)
(78.5231 79.6492 123.084)
(75.4719 73.408 120.221)
(94.6837 128.91 123.646)
(93.6494 122.002 124.894)
(92.2724 115.042 125.642)
(90.5804 108.079 125.867)
(88.6006 101.151 125.556)
(86.3586 94.3042 124.692)
(83.882 87.5833 123.26)
(81.1958 81.0334 121.251)
(78.3267 74.6994 118.657)
(75.2991 68.6252 115.475)
(94.3906 123.393 121.393)
(93.3583 116.523 122.366)
(91.9863 109.62 122.829)
(90.3023 102.731 122.761)
(88.3335 95.895 122.148)
(86.1053 89.1567 120.975)
(83.6452 82.5606 119.228)
(80.9781 76.1513 116.898)
(78.1305 69.9728 113.98)
(75.1267 64.0682 110.471)
(94.0969 118.063 118.955)
(93.0665 111.238 119.644)
(91.6996 104.396 119.813)
(90.0238 97.5868 119.442)
(88.0661 90.8464 118.519)
(85.8518 84.2207 117.028)
(83.4085 77.7534 114.957)
(80.7607 71.488 112.299)
(77.9348 65.4681 109.047)
(74.9547 59.736 105.204)
(93.8025 112.92 116.326)
(92.7742 106.144 116.722)
(91.4125 99.3692 116.59)
(89.7449 92.6435 115.907)
(87.7986 86.0038 114.664)
(85.5984 79.4949 112.847)
(83.1719 73.16 110.443)
(80.5436 67.0422 107.446)
(77.7395 61.1844 103.855)
(74.7829 55.6331 99.6866)
(74.6114 51.7679 93.937)
(77.5444 57.1262 98.4139)
(80.3269 62.813 102.337)
(82.9357 68.7794 105.679)
(85.3451 74.9777 108.425)
(87.5309 81.3655 110.579)
(89.4659 87.9001 112.15)
(91.125 94.5371 113.153)
(92.4814 101.24 113.597)
(93.5076 107.961 113.504)
(93.2122 103.186 110.481)
(92.1882 96.5248 110.263)
(90.8372 89.8986 109.498)
(89.1867 83.3552 108.166)
(87.2633 76.9303 106.256)
(85.092 70.6679 103.757)
(82.6998 64.6105 100.662)
(80.1105 58.8051 96.9826)
(77.3494 53.3018 92.7436)
(92.9163 98.5918 107.255)
(91.8947 91.9963 106.716)
(90.5493 85.4521 105.621)
(88.9074 79.0073 103.949)
(86.9959 72.6968 101.692)
(84.8391 66.5647 98.8399)
(82.464 60.6582 95.4026)
(79.8941 55.0268 91.4014)
(77.1545 49.7196 86.8632)
(76.9596 46.3877 80.7922)
(79.6777 51.4862 85.6126)
(82.2283 56.9307 89.9197)
(84.5863 62.6729 93.6842)
(86.7285 68.6643 96.8819)
(88.6282 74.855 99.494)
(90.2612 81.1965 101.515)
(91.6009 87.6533 102.95)
(92.6201 94.1781 103.819)
(92.3235 89.943 100.169)
(91.3069 83.4945 98.9604)
(89.973 77.1301 97.1762)
(88.3491 70.8978 94.798)
(86.4612 64.8377 91.8374)
(84.3336 59.0008 88.3082)
(81.9926 53.4362 84.2319)
(79.4613 48.1915 79.6352)
(76.7646 43.3142 74.55)
(92.0267 85.8852 96.3009)
(91.7297 82.0031 92.2087)
(91.0128 79.5183 94.7422)
(90.7186 75.7243 90.2923)
(89.6848 73.2525 92.6006)
(89.3966 69.5689 87.7992)
(88.0699 67.1408 89.8718)
(87.7907 63.5918 84.7328)
(86.1939 61.2252 86.5762)
(85.9265 57.8347 81.116)
(84.0808 55.5564 82.7301)
(83.828 52.3476 76.9682)
(81.7568 50.1827 78.3577)
(81.5209 47.1781 72.316)
(79.2448 45.1507 73.4883)
(79.0281 42.372 67.191)
(76.5694 40.5072 68.1561)
(91.4325 78.2965 87.89)
(90.4242 72.1179 85.6215)
(89.1082 66.0872 82.7889)
(87.5113 60.259 79.3981)
(85.659 54.6743 75.4747)
(83.575 49.3826 71.0408)
(81.2849 44.4306 66.1255)
(78.8113 39.8631 60.7626)
(91.1351 74.7706 83.3554)
(90.1297 68.7067 80.7461)
(88.8197 62.8152 77.5865)
(87.2318 57.15 73.8851)
(85.3914 51.7517 69.6702)
(83.3218 46.6691 64.9662)
(81.0486 41.948 59.8048)
(78.5942 37.632 54.2221)
(90.8376 71.4332 78.6206)
(89.835 65.4987 75.6824)
(88.5311 59.7607 72.2088)
(86.9522 54.2729 68.2113)
(85.1235 49.075 63.7202)
(83.0684 44.2151 58.7628)
(80.8121 39.7381 53.3729)
(78.3768 35.6866 47.5888)
(90.5399 68.2919 73.7012)
(89.5402 62.5015 70.4466)
(88.2422 56.9316 66.6728)
(86.6723 51.6354 62.3939)
(84.8554 46.6518 57.6427)
(82.8147 42.0284 52.4489)
(80.5753 37.8088 46.8484)
(78.1591 34.0345 40.8818)
(90.242 65.3546 68.6132)
(89.2451 59.723 65.0552)
(87.9532 54.3356 60.9952)
(86.3922 49.2453 56.4504)
(84.5871 44.4901 51.4555)
(82.5608 40.1167 46.0428)
(80.3382 36.1678 40.2502)
(77.9412 32.6835 34.1204)
(89.9438 62.6289 63.3723)
(88.9498 57.1707 59.5243)
(87.6639 51.9805 55.193)
(86.1119 47.1103 50.3982)
(84.3185 42.5975 45.1766)
(82.3066 38.4878 39.5629)
(80.1008 34.8227 33.5971)
(77.723 31.6411 27.3237)
(88.6542 54.8524 53.8705)
(87.3743 49.8739 49.283)
(85.8313 45.2382 44.2547)
(84.0496 40.9818 38.8238)
(82.0521 37.1493 33.0276)
(79.8632 33.7812 26.9078)
(77.5045 30.915 20.5109)
(88.3584 52.7758 48.1099)
(87.0845 48.0236 43.2822)
(85.5503 43.6366 38.0372)
(83.7805 39.6505 32.4151)
(81.7973 36.1089 26.4552)
(79.6252 33.0508 20.2012)
(77.2859 30.5126 13.7011)
(88.0623 50.9485 42.259)
(86.7944 46.4372 37.2073)
(85.2691 42.3132 31.7632)
(83.511 38.6114 25.9683)
(81.5422 35.3741 19.864)
(79.3871 32.6391 13.496)
(77.067 30.4413 6.91354)
(87.766 49.3782 36.334)
(86.504 45.1223 31.0753)
(84.9876 41.2756 25.4501)
(83.2413 37.872 19.5013)
(81.2869 34.9524 13.2725)
(79.1488 32.5535 6.81079)
(76.8482 30.7085 0.167153)
(74.4081 29.4464 -6.60887)
(87.4693 48.0724 30.3513)
(86.2132 44.0865 24.903)
(84.7059 40.5314 19.1151)
(82.9713 37.4398 13.0319)
(81.0314 34.8514 6.69876)
(78.9104 32.8014 0.164385)
(76.6293 31.319 -6.52304)
(74.2107 30.4202 -13.3183)
(87.1723 47.0388 24.3272)
(86.875 46.2849 18.278)
(85.9222 43.3374 18.7074)
(85.6309 42.8826 12.5052)
(84.4238 40.0881 12.7758)
(84.1415 39.9533 6.44937)
(82.7011 37.3224 6.57808)
(82.4308 37.5272 0.157498)
(80.7758 35.0784 0.161165)
(80.52 35.6383 -6.32553)
(78.6719 33.3876 -6.42837)
(78.4331 34.3058 -12.9569)
(76.4101 32.2664 -13.1465)
(76.1907 33.5415 -19.6909)
(74.0131 31.7258 -19.9464)
(73.8153 33.3541 -26.4805)
(86.5774 45.8184 12.22)
(85.3393 42.7297 6.31326)
(83.8591 40.1344 0.153212)
(82.1602 38.0591 -6.21512)
(80.264 36.5251 -12.7506)
(78.194 35.5473 -19.4089)
(75.9711 35.1353 -26.144)
(73.6172 35.2957 -32.9084)
(73.2201 40.0808 -45.3947)
(73.4188 37.541 -39.2173)
(75.5309 39.2422 -38.7263)
(75.7511 37.0387 -32.4932)
(77.715 38.9642 -32.0347)
(77.9547 37.1031 -25.7723)
(79.7508 39.2447 -25.3678)
(80.0076 37.7301 -19.1021)
(81.6181 40.0782 -18.7721)
(81.8894 38.9122 -12.529)
(83.2932 41.4537 -12.2937)
(83.5763 40.6364 -6.09811)
(84.7552 43.3566 -5.97482)
(85.0474 42.886 0.148442)
(85.9812 45.7774 0.142971)
(86.2795 45.6467 6.1696)
(85.6827 46.2155 -5.8455)
(84.4626 44.1362 -12.0455)
(83.0097 42.5781 -18.4218)
(81.3465 41.5487 -24.9328)
(79.4937 41.0601 -31.5357)
(77.4749 41.1216 -38.184)
(75.3102 41.7369 -44.8306)
(73.0211 42.9055 -51.428)
(85.3837 46.956 -11.7847)
(84.1696 45.2168 -18.0521)
(82.7258 44.0015 -24.4707)
(81.0745 43.3151 -30.9988)
(79.2363 43.1675 -37.5936)
(77.2345 43.5664 -44.2077)
(75.0893 44.5133 -50.7939)
(72.8218 46.0056 -57.3045)
(85.0842 47.9911 -17.6633)
(83.8761 46.5906 -23.983)
(82.4415 45.7157 -30.4285)
(80.8022 45.369 -36.9584)
(78.9784 45.5583 -43.5294)
(76.9937 46.2896 -50.0935)
(74.868 47.5622 -56.6035)
(72.6221 49.3716 -63.0118)
(84.7843 49.3135 -23.4698)
(83.5822 48.2497 -29.8265)
(82.1568 47.7124 -36.2836)
(80.5294 47.7019 -42.7995)
(78.7201 48.2236 -49.3309)
(76.7525 49.2819 -55.8292)
(74.6463 50.8743 -62.2471)
(72.4221 52.9939 -68.5371)
(83.2878 50.1862 -35.5712)
(81.8717 49.9835 -42.0241)
(80.2561 50.3052 -48.5102)
(78.4614 51.1545 -54.986)
(76.5109 52.5344 -61.4024)
(74.4242 54.4401 -67.7121)
(72.2218 56.8629 -73.868)
(82.993 52.3921 -41.2054)
(81.5861 52.5207 -47.6381)
(79.9824 53.1704 -54.0784)
(78.2023 54.3424 -60.4824)
(76.2689 56.0378 -66.8008)
(74.2019 58.2504 -72.9861)
(72.0212 60.9689 -78.9917)
(82.6977 54.8595 -46.7174)
(82.402 57.5805 -52.0957)
(81.3 55.3157 -53.1139)
(81.0135 58.3602 -58.4397)
(79.7083 56.2889 -59.4921)
(79.4338 59.6521 -64.7394)
(77.9427 57.7782 -65.8081)
(77.6828 61.4531 -70.9509)
(76.0266 59.7832 -72.012)
(75.7839 63.7612 -77.0238)
(73.9792 62.2955 -78.0566)
(73.7562 66.5662 -82.9113)
(71.8204 65.3022 -83.8959)
(71.6193 69.8532 -88.5679)
(82.1058 60.547 -57.3286)
(80.7266 61.646 -63.6036)
(79.1588 63.2514 -69.8082)
(77.4225 65.3581 -75.8985)
(75.5409 67.9627 -81.8239)
(73.533 71.0529 -87.5378)
(71.4181 74.6122 -92.9954)
(81.8092 63.7511 -62.4045)
(80.4392 65.1647 -68.5938)
(78.8834 67.0781 -74.6867)
(77.1618 69.4844 -80.639)
(75.2976 72.3784 -86.4)
(73.3096 75.7463 -91.9237)
(71.2168 79.5696 -97.1662)
(81.512 67.1848 -67.3118)
(81.2145 70.8401 -72.0389)
(80.1514 68.908 -73.3986)
(79.8631 72.8676 -78.0062)
(78.6076 71.1237 -79.3628)
(78.3315 75.3794 -83.8246)
(76.9009 73.8231 -85.1602)
(76.6396 78.3651 -89.45)
(75.0542 76.9993 -90.74)
(74.8105 81.8161 -94.8319)
(73.086 80.6369 -96.0571)
(72.8622 85.7147 -99.9315)
(71.0153 84.7154 -101.074)
(80.9165 74.7089 -76.5742)
(80.6181 78.7833 -80.9061)
(79.5745 77.035 -82.4048)
(79.2855 81.4021 -86.5827)
(78.055 79.8367 -88.0603)
(77.7782 84.487 -92.0581)
(76.3781 83.1016 -93.4968)
(76.1163 88.0228 -97.2938)
(74.5666 86.8189 -98.6694)
(74.3223 91.9933 -102.248)
(72.6382 90.9652 -103.543)
(72.4138 96.3733 -106.888)
(70.6115 95.5125 -108.086)
(65.1 166.404 83.6744)
(65.1 168.059 64.7526)
(65.1 170.322 64.9109)
(65.1 167.168 84.7344)
(65.1 167.018 84.6858)
(65.1 166.877 84.614)
(65.1 166.749 84.521)
(65.1 174.858 64.9901)
(65.1 175.208 84.9871)
(65.1 172.59 64.9901)
(65.1 172.578 84.9923)
(65.1 169.949 84.9161)
(65.1 167.324 84.7587)
(65.1 166.637 84.4089)
(65.1 166.545 84.2807)
(65.1 166.402 83.8325)
(65.1 166.474 84.1395)
(65.1 166.426 83.9889)
(45.1 175.208 84.9871)
(45.1 172.578 84.9923)
(45.1 169.949 84.9161)
(45.1 167.324 84.7587)
(45.1 174.858 64.9901)
(45.1 172.59 64.9901)
(45.1 170.322 64.9109)
(45.1 168.059 64.7526)
(45.1 166.404 83.6744)
(45.1 166.545 84.2807)
(45.1 166.637 84.4089)
(45.1 166.749 84.521)
(45.1 166.877 84.614)
(45.1 167.018 84.6858)
(45.1 166.474 84.1395)
(45.1 166.402 83.8325)
(45.1 166.426 83.9889)
(45.1 167.168 84.7344)
(48.1 168.059 64.7526)
(48.1 170.322 64.9109)
(48.1 172.59 64.9901)