/*--------------------------------*- C++ -*----------------------------------*\
| =========                 |                                                 |
| \\      /  F ield         | OpenFOAM: The Open Source CFD Toolbox           |
|  \\    /   O peration     | Version:  v2106                                 |
|   \\  /    A nd           | Website:  www.openfoam.com                      |
|    \\/     M anipulation  |                                                 |
\*---------------------------------------------------------------------------*/
FoamFile
{
    version     2.0;
    format      ascii;
    class       volScalarField;
    object      T;
}
// * * * * * * * * * * * * * * * * * * * * * * * * * * * * * * * * * * * * * //

Tinlet          298;

dimensions      [0 0 0 1 0 0 0];

internalField   uniform $Tinlet;

boundaryField
{
    inlet
    {
        type            fixedValue;
        value           uniform $Tinlet;
    }
    outlet
    {
	type		fixedValue;
	value		uniform $Tinlet;
    }
    patches
    {
        type            fixedValue;
	value		uniform $Tinlet;
    }
    wall
    {
	type		zeroGradient;
    }
    car
    {
	type		zeroGradient;
    }
}


// ************************************************************************* //
