/*--------------------------------*- C++ -*----------------------------------*\
| =========                 |                                                 |
| \\      /  F ield         | OpenFOAM: The Open Source CFD Toolbox           |
|  \\    /   O peration     | Version:  2106                                  |
|   \\  /    A nd           | Website:  www.openfoam.com                      |
|    \\/     M anipulation  |                                                 |
\*---------------------------------------------------------------------------*/
FoamFile
{
    version     2.0;
    format      ascii;
    arch        "LSB;label=32;scalar=64";
    class       featureEdgeMesh;
    location    "constant/triSurface";
    object      outlet.eMesh;
}
// * * * * * * * * * * * * * * * * * * * * * * * * * * * * * * * * * * * * * //


// points:

63
(
(196.540054 -0.481022 20.507597)
(194.533218 -0.525119 18.128092)
(198.782562 -0.431746 22.666241)
(201.236603 -0.377821 24.580788)
(203.875732 -0.31983 26.230633)
(224.974503 0.143789 29.277292)
(221.906357 0.07637 29.797903)
(227.972305 0.209661 28.441462)
(216.318283 -0.046421 -29.925489)
(219.119339 0.015129 -29.992094)
(230.867493 0.273279 27.299364)
(236.226929 0.391046 24.148426)
(233.628937 0.333958 25.863228)
(188.448166 -0.65883 0.777918)
(188.529007 -0.657054 -2.334236)
(188.93187 -0.648202 -5.421254)
(235.730133 0.380129 -24.506947)
(238.175842 0.433871 -22.582008)
(240.408707 0.482935 -20.414217)
(242.404739 0.526795 -18.027058)
(244.142517 0.564981 -15.446391)
(245.603439 0.597082 -12.700159)
(246.771942 0.622759 -9.818083)
(247.635666 0.641738 -6.831327)
(248.185562 0.653821 -3.772156)
(248.364182 0.657746 -1.887476)
(248.423615 0.659052 0)
(248.292267 0.656166 2.804536)
(247.897522 0.647492 5.594229)
(247.246094 0.633178 8.323509)
(246.342819 0.613329 10.979322)
(245.19577 0.588124 13.538574)
(243.815079 0.557786 15.979028)
(242.212921 0.52258 18.279493)
(240.403336 0.482817 20.420004)
(238.402176 0.438844 22.381989)
(218.800812 0.00813 29.997717)
(215.691299 -0.060198 29.874592)
(210.795807 -0.16777 -29.011686)
(213.535675 -0.107565 -29.597731)
(221.914398 0.076547 -29.796963)
(224.679031 0.137296 -29.341801)
(206.671509 -0.258396 27.598028)
(209.593842 -0.194182 28.66827)
(212.611267 -0.127878 29.429852)
(202.537094 -0.349245 -25.441433)
(205.258881 -0.289437 -26.952095)
(199.986542 -0.40529 -23.656778)
(197.634674 -0.456969 -21.617369)
(208.122604 -0.22651 -28.172482)
(195.506836 -0.503725 -19.345177)
(193.6259 -0.545057 -16.864672)
(190.682831 -0.609727 -11.387543)
(192.0121 -0.580518 -14.202573)
(189.65239 -0.632369 -8.449893)
(227.389099 0.196846 -28.630594)
(230.307541 0.260975 -27.547707)
(188.690216 -0.653512 3.881695)
(189.252533 -0.641156 6.943667)
(233.0979 0.32229 -26.168177)
(190.129059 -0.621895 9.930857)
(192.783707 -0.563563 15.553348)
(191.310364 -0.595937 12.811091)
)


// edges:

63
(
(0 1)
(2 0)
(3 2)
(4 3)
(5 6)
(7 5)
(8 9)
(10 7)
(11 12)
(12 10)
(13 14)
(14 15)
(16 17)
(17 18)
(18 19)
(19 20)
(20 21)
(21 22)
(22 23)
(23 24)
(24 25)
(25 26)
(26 27)
(27 28)
(28 29)
(29 30)
(30 31)
(31 32)
(32 33)
(33 34)
(34 35)
(35 11)
(36 37)
(38 39)
(39 8)
(9 40)
(40 41)
(42 4)
(43 42)
(37 44)
(44 43)
(6 36)
(45 46)
(47 45)
(48 47)
(46 49)
(49 38)
(50 48)
(51 50)
(52 53)
(53 51)
(54 52)
(15 54)
(41 55)
(55 56)
(57 13)
(58 57)
(56 59)
(59 16)
(60 58)
(61 62)
(62 60)
(1 61)
)

// * * * * * * * * * * * * * * * * * * * * * * * * * * * * * * * * * * * * * //


// ************************************************************************* //
