/*--------------------------------*- C++ -*----------------------------------*\
| =========                 |                                                 |
| \\      /  F ield         | OpenFOAM: The Open Source CFD Toolbox           |
|  \\    /   O peration     | Version:  2106                                  |
|   \\  /    A nd           | Website:  www.openfoam.com                      |
|    \\/     M anipulation  |                                                 |
\*---------------------------------------------------------------------------*/
FoamFile
{
    version     2.0;
    format      ascii;
    arch        "LSB;label=32;scalar=64";
    class       extendedFeatureEdgeMesh;
    location    "constant/extendedFeatureEdgeMesh";
    object      outlet.extendedFeatureEdgeMesh;
}
// * * * * * * * * * * * * * * * * * * * * * * * * * * * * * * * * * * * * * //

// points

63
(
(196.540054 -0.481022 20.507597)
(194.533218 -0.525119 18.128092)
(198.782562 -0.431746 22.666241)
(201.236603 -0.377821 24.580788)
(203.875732 -0.31983 26.230633)
(224.974503 0.143789 29.277292)
(221.906357 0.07637 29.797903)
(227.972305 0.209661 28.441462)
(216.318283 -0.046421 -29.925489)
(219.119339 0.015129 -29.992094)
(230.867493 0.273279 27.299364)
(236.226929 0.391046 24.148426)
(233.628937 0.333958 25.863228)
(188.448166 -0.65883 0.777918)
(188.529007 -0.657054 -2.334236)
(188.93187 -0.648202 -5.421254)
(235.730133 0.380129 -24.506947)
(238.175842 0.433871 -22.582008)
(240.408707 0.482935 -20.414217)
(242.404739 0.526795 -18.027058)
(244.142517 0.564981 -15.446391)
(245.603439 0.597082 -12.700159)
(246.771942 0.622759 -9.818083)
(247.635666 0.641738 -6.831327)
(248.185562 0.653821 -3.772156)
(248.364182 0.657746 -1.887476)
(248.423615 0.659052 0)
(248.292267 0.656166 2.804536)
(247.897522 0.647492 5.594229)
(247.246094 0.633178 8.323509)
(246.342819 0.613329 10.979322)
(245.19577 0.588124 13.538574)
(243.815079 0.557786 15.979028)
(242.212921 0.52258 18.279493)
(240.403336 0.482817 20.420004)
(238.402176 0.438844 22.381989)
(218.800812 0.00813 29.997717)
(215.691299 -0.060198 29.874592)
(210.795807 -0.16777 -29.011686)
(213.535675 -0.107565 -29.597731)
(221.914398 0.076547 -29.796963)
(224.679031 0.137296 -29.341801)
(206.671509 -0.258396 27.598028)
(209.593842 -0.194182 28.66827)
(212.611267 -0.127878 29.429852)
(202.537094 -0.349245 -25.441433)
(205.258881 -0.289437 -26.952095)
(199.986542 -0.40529 -23.656778)
(197.634674 -0.456969 -21.617369)
(208.122604 -0.22651 -28.172482)
(195.506836 -0.503725 -19.345177)
(193.6259 -0.545057 -16.864672)
(190.682831 -0.609727 -11.387543)
(192.0121 -0.580518 -14.202573)
(189.65239 -0.632369 -8.449893)
(227.389099 0.196846 -28.630594)
(230.307541 0.260975 -27.547707)
(188.690216 -0.653512 3.881695)
(189.252533 -0.641156 6.943667)
(233.0979 0.32229 -26.168177)
(190.129059 -0.621895 9.930857)
(192.783707 -0.563563 15.553348)
(191.310364 -0.595937 12.811091)
)

// edges

63
(
(0 1)
(2 0)
(3 2)
(4 3)
(5 6)
(7 5)
(8 9)
(10 7)
(11 12)
(12 10)
(13 14)
(14 15)
(16 17)
(17 18)
(18 19)
(19 20)
(20 21)
(21 22)
(22 23)
(23 24)
(24 25)
(25 26)
(26 27)
(27 28)
(28 29)
(29 30)
(30 31)
(31 32)
(32 33)
(33 34)
(34 35)
(35 11)
(36 37)
(38 39)
(39 8)
(9 40)
(40 41)
(42 4)
(43 42)
(37 44)
(44 43)
(6 36)
(45 46)
(47 45)
(48 47)
(46 49)
(49 38)
(50 48)
(51 50)
(52 53)
(53 51)
(54 52)
(15 54)
(41 55)
(55 56)
(57 13)
(58 57)
(56 59)
(59 16)
(60 58)
(61 62)
(62 60)
(1 61)
)

// concaveStart mixedStart nonFeatureStart
0 0 0
// internalStart flatStart openStart multipleStart
0 0 0 63
// normals

63
(
(0.02196830929 -0.9997586676 -1.832207405e-07)
(0.02196843993 -0.9997586647 -1.36350622e-07)
(0.02196851158 -0.9997586631 1.868812783e-07)
(0.02196830712 -0.9997586676 -1.160716234e-07)
(0.02196856441 -0.999758662 6.489590116e-08)
(0.02196813285 -0.9997586714 1.122066541e-08)
(0.02196854439 -0.9997586624 -3.394096327e-07)
(0.02196839284 -0.9997586657 -1.703504195e-08)
(0.02196871923 -0.9997586586 1.950785834e-07)
(0.02196818677 -0.9997586703 -3.05554908e-07)
(0.02196836845 -0.9997586663 1.200077862e-07)
(0.02196836811 -0.9997586663 1.227612512e-07)
(0.02196890295 -0.9997586545 -2.670485818e-07)
(0.02196850285 -0.9997586633 -2.500539004e-07)
(0.02196845327 -0.9997586644 -1.343432128e-07)
(0.02196898003 -0.9997586528 -1.651717699e-07)
(0.02196877129 -0.9997586574 -5.129294448e-07)
(0.02196812156 -0.9997586717 3.426237972e-07)
(0.02196766348 -0.9997586818 1.412397235e-07)
(0.02196789089 -0.9997586768 9.401429656e-09)
(0.02196715433 -0.999758693 1.484404483e-07)
(0.02196941179 -0.9997586433 -1.232464312e-08)
(0.02196638355 -0.9997587099 -2.249577543e-08)
(0.02196891085 -0.9997586544 7.568717113e-08)
(0.02196867426 -0.9997586596 1.700387629e-07)
(0.0219693689 -0.9997586443 6.490165812e-08)
(0.02196838633 -0.9997586659 -3.969920056e-08)
(0.02196745023 -0.9997586864 -1.713641832e-07)
(0.02196903862 -0.9997586515 1.599174224e-07)
(0.02196854572 -0.9997586624 2.556010111e-07)
(0.02196886122 -0.9997586554 4.174205997e-07)
(0.0219680751 -0.9997586727 -2.692329352e-07)
(0.02196855035 -0.9997586623 1.379077783e-07)
(0.02196841066 -0.9997586653 1.278542899e-07)
(0.02196832905 -0.9997586671 1.289790955e-08)
(0.0219684832 -0.9997586638 -1.490372846e-07)
(0.02196831701 -0.9997586674 1.125811389e-08)
(0.02196844009 -0.9997586647 2.298422301e-07)
(0.02196828199 -0.9997586682 -1.235983065e-07)
(0.02196847221 -0.999758664 1.550882301e-07)
(0.02196838916 -0.9997586658 4.1907487e-08)
(0.02196829596 -0.9997586679 9.862049226e-10)
(0.02196852597 -0.9997586628 5.447553505e-08)
(0.02196844416 -0.9997586646 1.035703686e-07)
(0.02196833797 -0.9997586669 5.047064594e-08)
(0.02196850059 -0.9997586634 -9.259476025e-08)
(0.02196836665 -0.9997586663 9.483584526e-08)
(0.02196834688 -0.9997586667 1.615468132e-07)
(0.02196849473 -0.9997586635 -2.791670391e-07)
(0.02196844608 -0.9997586646 8.353979816e-09)
(0.02196843397 -0.9997586648 8.141329332e-08)
(0.02196837401 -0.9997586662 1.966070222e-07)
(0.02196844529 -0.9997586646 -1.567489499e-07)
(0.02196823746 -0.9997586692 2.97240463e-07)
(0.02196832992 -0.9997586671 2.094810864e-07)
(0.02196838844 -0.9997586658 -2.357889039e-07)
(0.02196842887 -0.9997586649 -6.628182158e-08)
(0.02196876622 -0.9997586575 -3.932211553e-07)
(0.02196816617 -0.9997586707 -1.746745211e-07)
(0.02196845538 -0.9997586644 1.437194774e-07)
(0.0219683495 -0.9997586667 -2.650691997e-07)
(0.02196841208 -0.9997586653 1.181866357e-07)
(0.02196848352 -0.9997586637 2.402166469e-07)
)

// normal volume types

63
(
0
0
0
0
0
0
0
0
0
0
0
0
0
0
0
0
0
0
0
0
0
0
0
0
0
0
0
0
0
0
0
0
0
0
0
0
0
0
0
0
0
0
0
0
0
0
0
0
0
0
0
0
0
0
0
0
0
0
0
0
0
0
0
)

// normalDirections

63
(
1(1)
1(1)
1(1)
1(1)
1(1)
1(1)
1(1)
1(1)
1(1)
1(1)
1(1)
1(1)
1(1)
1(1)
1(1)
1(1)
1(1)
1(1)
1(1)
1(1)
1(1)
1(1)
1(1)
1(1)
1(1)
1(1)
1(1)
1(1)
1(1)
1(1)
1(1)
1(1)
1(1)
1(1)
1(1)
1(1)
1(1)
1(1)
1(1)
1(1)
1(1)
1(1)
1(1)
1(1)
1(1)
1(1)
1(1)
1(1)
1(1)
1(1)
1(1)
1(1)
1(1)
1(1)
1(1)
1(1)
1(1)
1(1)
1(1)
1(1)
1(1)
1(1)
1(1)
)

// edgeNormals

63
(
1(0)
1(1)
1(2)
1(3)
1(4)
1(5)
1(6)
1(7)
1(8)
1(9)
1(10)
1(11)
1(12)
1(13)
1(14)
1(15)
1(16)
1(17)
1(18)
1(19)
1(20)
1(21)
1(22)
1(23)
1(24)
1(25)
1(26)
1(27)
1(28)
1(29)
1(30)
1(31)
1(32)
1(33)
1(34)
1(35)
1(36)
1(37)
1(38)
1(39)
1(40)
1(41)
1(42)
1(43)
1(44)
1(45)
1(46)
1(47)
1(48)
1(49)
1(50)
1(51)
1(52)
1(53)
1(54)
1(55)
1(56)
1(57)
1(58)
1(59)
1(60)
1(61)
1(62)
)

// featurePointNormals
0()
// featurePointEdges
0()
// regionEdges

63
(
0
1
2
3
4
5
6
7
8
9
10
11
12
13
14
15
16
17
18
19
20
21
22
23
24
25
26
27
28
29
30
31
32
33
34
35
36
37
38
39
40
41
42
43
44
45
46
47
48
49
50
51
52
53
54
55
56
57
58
59
60
61
62
)



// ************************************************************************* //
