/*--------------------------------*- C++ -*----------------------------------*\
| =========                 |                                                 |
| \\      /  F ield         | OpenFOAM: The Open Source CFD Toolbox           |
|  \\    /   O peration     | Version:  v2006                                 |
|   \\  /    A nd           | Website:  www.openfoam.com                      |
|    \\/     M anipulation  |                                                 |
\*---------------------------------------------------------------------------*/
FoamFile
{
    version     2.0;
    format      ascii;
    class       dictionary;
    location    "constant";
    object      dynamicMeshDict;
}
// * * * * * * * * * * * * * * * * * * * * * * * * * * * * * * * * * * * * * //

dynamicFvMesh   dynamicMotionSolverFvMesh;

motionSolverLibs (fvMotionSolvers);

motionSolver    solidBody;

cellZone        rotatingZone;	// name of zone to be rotated

solidBodyMotionFunction  rotatingMotion;

origin      (21 172.3 0);			// point at which it rotates
axis        (1 0 0);			    // will rotate according to right-hand rule method
omega       6283;					// 60,000 rpm

// ************************************************************************* //
