/*--------------------------------*- C++ -*----------------------------------*\
| =========                 |                                                 |
| \\      /  F ield         | OpenFOAM: The Open Source CFD Toolbox           |
|  \\    /   O peration     | Version:  2106                                  |
|   \\  /    A nd           | Website:  www.openfoam.com                      |
|    \\/     M anipulation  |                                                 |
\*---------------------------------------------------------------------------*/
FoamFile
{
    version     2.0;
    format      ascii;
    arch        "LSB;label=32;scalar=64";
    class       extendedFeatureEdgeMesh;
    location    "constant/extendedFeatureEdgeMesh";
    object      inlet.extendedFeatureEdgeMesh;
}
// * * * * * * * * * * * * * * * * * * * * * * * * * * * * * * * * * * * * * //

// points
6((2 180 157.5) (0 180 157.5) (2 240 157.5) (0 240 157.5) (2 240 157.5) (0 180 157.5))
// edges
6((0 4) (4 1) (1 0) (5 2) (2 3) (3 5))
// concaveStart mixedStart nonFeatureStart
0 0 4
// internalStart flatStart openStart multipleStart
0 0 0 6
// normals
2{(0 -0 1)}
// normal volume types

2
(
0
0
)

// normalDirections

6
(
1(1)
1(1)
1(1)
1(1)
1(1)
1(1)
)

// edgeNormals

6
(
1(0)
1(0)
1(0)
1(1)
1(1)
1(1)
)

// featurePointNormals

4
(
1(0)
1(0)
1(1)
1(1)
)

// featurePointEdges

4
(
2(0 2)
2(1 2)
2(3 4)
2(4 5)
)

// regionEdges
6(0 1 2 3 4 5)


// ************************************************************************* //
