/*--------------------------------*- C++ -*----------------------------------*\
| =========                 |                                                 |
| \\      /  F ield         | OpenFOAM: The Open Source CFD Toolbox           |
|  \\    /   O peration     | Version:  v2006                                 |
|   \\  /    A nd           | Website:  www.openfoam.com                      |
|    \\/     M anipulation  |                                                 |
\*---------------------------------------------------------------------------*/
FoamFile
{
    version     2.0;
    format      ascii;
    class       dictionary;
    location    "system";
    object      fvSchemes;
}
// * * * * * * * * * * * * * * * * * * * * * * * * * * * * * * * * * * * * * //

ddtSchemes
{
    default         Euler;
}

gradSchemes
{
    default         Gauss linear;
}

divSchemes // divergence schemes
{
    default         	none;
	div(phi,U)      	Gauss CoBlended
							0.01                    // Co below which scheme1 is used
							limitedLinearV 1        // scheme1
							0.05                    // Co above which scheme2 is used
							linearUpwind grad(U);   // scheme2
	div(phi,k)      Gauss linearUpwind grad(U);
    div(phi,K)      Gauss linearUpwind grad(U);
    div(phi,omega)  Gauss linearUpwind grad(U);
    div((nuEff*dev2(T(grad(U))))) Gauss linear;

	// incompressible
    div((nuEff*dev2(T(grad(U))))) Gauss linear;
}

laplacianSchemes
{
    default         Gauss linear corrected;
}

interpolationSchemes
{
    default         linear;
}

snGradSchemes
{
    default         corrected;
}

wallDist
{
    method meshWave;
}


// ************************************************************************* //
